# generated using pymatgen
data_Zr3H60(C6O)16
_symmetry_space_group_name_H-M   'P 1'
_cell_length_a   39.19120000
_cell_length_b   39.19120000
_cell_length_c   39.19120000
_cell_angle_alpha   90.00000000
_cell_angle_beta   90.00000000
_cell_angle_gamma   90.00000000
_symmetry_Int_Tables_number   1
_chemical_formula_structural   Zr3H60(C6O)16
_chemical_formula_sum   'Zr48 H960 C1536 O256'
_cell_volume   60195.72981026
_cell_formula_units_Z   16
loop_
 _symmetry_equiv_pos_site_id
 _symmetry_equiv_pos_as_xyz
  1  'x, y, z'
loop_
 _atom_site_type_symbol
 _atom_site_label
 _atom_site_symmetry_multiplicity
 _atom_site_fract_x
 _atom_site_fract_y
 _atom_site_fract_z
 _atom_site_occupancy
  Zr  Zr0  1  0.12500000  0.12500000  0.18805000  1
  Zr  Zr1  1  0.62500000  0.12500000  0.68805000  1
  Zr  Zr2  1  0.62500000  0.62500000  0.18805000  1
  Zr  Zr3  1  0.12500000  0.62500000  0.56195000  1
  Zr  Zr4  1  0.12500000  0.12500000  0.06195000  1
  Zr  Zr5  1  0.62500000  0.62500000  0.06195000  1
  Zr  Zr6  1  0.18805000  0.12500000  0.12500000  1
  Zr  Zr7  1  0.18805000  0.62500000  0.62500000  1
  Zr  Zr8  1  0.68805000  0.62500000  0.12500000  1
  Zr  Zr9  1  0.56195000  0.12500000  0.62500000  1
  Zr  Zr10  1  0.06195000  0.62500000  0.62500000  1
  Zr  Zr11  1  0.06195000  0.12500000  0.12500000  1
  Zr  Zr12  1  0.12500000  0.18805000  0.12500000  1
  Zr  Zr13  1  0.12500000  0.68805000  0.62500000  1
  Zr  Zr14  1  0.62500000  0.56195000  0.12500000  1
  Zr  Zr15  1  0.62500000  0.06195000  0.62500000  1
  Zr  Zr16  1  0.87500000  0.37500000  0.31195000  1
  Zr  Zr17  1  0.87500000  0.87500000  0.81195000  1
  Zr  Zr18  1  0.37500000  0.37500000  0.93805000  1
  Zr  Zr19  1  0.37500000  0.87500000  0.43805000  1
  Zr  Zr20  1  0.87500000  0.43805000  0.37500000  1
  Zr  Zr21  1  0.87500000  0.93805000  0.87500000  1
  Zr  Zr22  1  0.37500000  0.93805000  0.37500000  1
  Zr  Zr23  1  0.87500000  0.81195000  0.87500000  1
  Zr  Zr24  1  0.37500000  0.31195000  0.87500000  1
  Zr  Zr25  1  0.37500000  0.81195000  0.37500000  1
  Zr  Zr26  1  0.93805000  0.37500000  0.37500000  1
  Zr  Zr27  1  0.93805000  0.87500000  0.87500000  1
  Zr  Zr28  1  0.43805000  0.37500000  0.87500000  1
  Zr  Zr29  1  0.31195000  0.87500000  0.37500000  1
  Zr  Zr30  1  0.81195000  0.87500000  0.87500000  1
  Zr  Zr31  1  0.81195000  0.37500000  0.37500000  1
  Zr  Zr32  1  0.37500000  0.87500000  0.31195000  1
  Zr  Zr33  1  0.37500000  0.37500000  0.81195000  1
  Zr  Zr34  1  0.87500000  0.37500000  0.43805000  1
  Zr  Zr35  1  0.87500000  0.87500000  0.93805000  1
  Zr  Zr36  1  0.31195000  0.37500000  0.87500000  1
  Zr  Zr37  1  0.43805000  0.87500000  0.37500000  1
  Zr  Zr38  1  0.87500000  0.31195000  0.37500000  1
  Zr  Zr39  1  0.37500000  0.43805000  0.87500000  1
  Zr  Zr40  1  0.12500000  0.62500000  0.68805000  1
  Zr  Zr41  1  0.62500000  0.12500000  0.56195000  1
  Zr  Zr42  1  0.12500000  0.56195000  0.62500000  1
  Zr  Zr43  1  0.12500000  0.06195000  0.12500000  1
  Zr  Zr44  1  0.62500000  0.68805000  0.12500000  1
  Zr  Zr45  1  0.62500000  0.18805000  0.62500000  1
  Zr  Zr46  1  0.56195000  0.62500000  0.12500000  1
  Zr  Zr47  1  0.68805000  0.12500000  0.62500000  1
  H  H48  1  0.12113000  0.04969000  0.27232000  1
  H  H49  1  0.11670000  0.00776000  0.31437000  1
  H  H50  1  0.04794000  0.88302000  0.29978000  1
  H  H51  1  0.00147000  0.85024000  0.30896000  1
  H  H52  1  0.12113000  0.54969000  0.77232000  1
  H  H53  1  0.11670000  0.50776000  0.81437000  1
  H  H54  1  0.04794000  0.38302000  0.79978000  1
  H  H55  1  0.00147000  0.35024000  0.80896000  1
  H  H56  1  0.62113000  0.04969000  0.77232000  1
  H  H57  1  0.61670000  0.00776000  0.81437000  1
  H  H58  1  0.62113000  0.54969000  0.27232000  1
  H  H59  1  0.61670000  0.50776000  0.31437000  1
  H  H60  1  0.62887000  0.20031000  0.77232000  1
  H  H61  1  0.63330000  0.24224000  0.81437000  1
  H  H62  1  0.70206000  0.36698000  0.79978000  1
  H  H63  1  0.74853000  0.39976000  0.80896000  1
  H  H64  1  0.62887000  0.70031000  0.27232000  1
  H  H65  1  0.63330000  0.74224000  0.31437000  1
  H  H66  1  0.70206000  0.86698000  0.29978000  1
  H  H67  1  0.74853000  0.89976000  0.30896000  1
  H  H68  1  0.12887000  0.20031000  0.27232000  1
  H  H69  1  0.13330000  0.24224000  0.31437000  1
  H  H70  1  0.20206000  0.36698000  0.29978000  1
  H  H71  1  0.24853000  0.39976000  0.30896000  1
  H  H72  1  0.12887000  0.70031000  0.77232000  1
  H  H73  1  0.13330000  0.74224000  0.81437000  1
  H  H74  1  0.20206000  0.86698000  0.79978000  1
  H  H75  1  0.24853000  0.89976000  0.80896000  1
  H  H76  1  0.12887000  0.54969000  0.47768000  1
  H  H77  1  0.13330000  0.50776000  0.43563000  1
  H  H78  1  0.12887000  0.04969000  0.97768000  1
  H  H79  1  0.13330000  0.00776000  0.93563000  1
  H  H80  1  0.62887000  0.54969000  0.97768000  1
  H  H81  1  0.63330000  0.50776000  0.93563000  1
  H  H82  1  0.62887000  0.04969000  0.47768000  1
  H  H83  1  0.63330000  0.00776000  0.43563000  1
  H  H84  1  0.62113000  0.70031000  0.97768000  1
  H  H85  1  0.61670000  0.74224000  0.93563000  1
  H  H86  1  0.54794000  0.86698000  0.95022000  1
  H  H87  1  0.50147000  0.89976000  0.94104000  1
  H  H88  1  0.62113000  0.20031000  0.47768000  1
  H  H89  1  0.61670000  0.24224000  0.43563000  1
  H  H90  1  0.54794000  0.36698000  0.45022000  1
  H  H91  1  0.50147000  0.39976000  0.44104000  1
  H  H92  1  0.12113000  0.70031000  0.47768000  1
  H  H93  1  0.11670000  0.74224000  0.43563000  1
  H  H94  1  0.12113000  0.20031000  0.97768000  1
  H  H95  1  0.11670000  0.24224000  0.93563000  1
  H  H96  1  0.27232000  0.12113000  0.04969000  1
  H  H97  1  0.31437000  0.11670000  0.00776000  1
  H  H98  1  0.29978000  0.04794000  0.88302000  1
  H  H99  1  0.30896000  0.00147000  0.85024000  1
  H  H100  1  0.27232000  0.62113000  0.54969000  1
  H  H101  1  0.31437000  0.61670000  0.50776000  1
  H  H102  1  0.77232000  0.12113000  0.54969000  1
  H  H103  1  0.81437000  0.11670000  0.50776000  1
  H  H104  1  0.79978000  0.04794000  0.38302000  1
  H  H105  1  0.80896000  0.00147000  0.35024000  1
  H  H106  1  0.77232000  0.62113000  0.04969000  1
  H  H107  1  0.81437000  0.61670000  0.00776000  1
  H  H108  1  0.79978000  0.54794000  0.88302000  1
  H  H109  1  0.80896000  0.50147000  0.85024000  1
  H  H110  1  0.77232000  0.62887000  0.20031000  1
  H  H111  1  0.81437000  0.63330000  0.24224000  1
  H  H112  1  0.77232000  0.12887000  0.70031000  1
  H  H113  1  0.81437000  0.13330000  0.74224000  1
  H  H114  1  0.27232000  0.62887000  0.70031000  1
  H  H115  1  0.31437000  0.63330000  0.74224000  1
  H  H116  1  0.29978000  0.70206000  0.86698000  1
  H  H117  1  0.30896000  0.74853000  0.89976000  1
  H  H118  1  0.27232000  0.12887000  0.20031000  1
  H  H119  1  0.31437000  0.13330000  0.24224000  1
  H  H120  1  0.47768000  0.12887000  0.54969000  1
  H  H121  1  0.43563000  0.13330000  0.50776000  1
  H  H122  1  0.45022000  0.20206000  0.38302000  1
  H  H123  1  0.44104000  0.24853000  0.35024000  1
  H  H124  1  0.47768000  0.62887000  0.04969000  1
  H  H125  1  0.43563000  0.63330000  0.00776000  1
  H  H126  1  0.97768000  0.12887000  0.04969000  1
  H  H127  1  0.93563000  0.13330000  0.00776000  1
  H  H128  1  0.95022000  0.20206000  0.88302000  1
  H  H129  1  0.94104000  0.24853000  0.85024000  1
  H  H130  1  0.97768000  0.62887000  0.54969000  1
  H  H131  1  0.93563000  0.63330000  0.50776000  1
  H  H132  1  0.95022000  0.70206000  0.38302000  1
  H  H133  1  0.94104000  0.74853000  0.35024000  1
  H  H134  1  0.97768000  0.62113000  0.70031000  1
  H  H135  1  0.93563000  0.61670000  0.74224000  1
  H  H136  1  0.97768000  0.12113000  0.20031000  1
  H  H137  1  0.93563000  0.11670000  0.24224000  1
  H  H138  1  0.47768000  0.62113000  0.20031000  1
  H  H139  1  0.43563000  0.61670000  0.24224000  1
  H  H140  1  0.45022000  0.54794000  0.36698000  1
  H  H141  1  0.44104000  0.50147000  0.39976000  1
  H  H142  1  0.47768000  0.12113000  0.70031000  1
  H  H143  1  0.43563000  0.11670000  0.74224000  1
  H  H144  1  0.04969000  0.27232000  0.12113000  1
  H  H145  1  0.00776000  0.31437000  0.11670000  1
  H  H146  1  0.88302000  0.29978000  0.04794000  1
  H  H147  1  0.85024000  0.30896000  0.00147000  1
  H  H148  1  0.04969000  0.77232000  0.62113000  1
  H  H149  1  0.00776000  0.81437000  0.61670000  1
  H  H150  1  0.54969000  0.27232000  0.62113000  1
  H  H151  1  0.50776000  0.31437000  0.61670000  1
  H  H152  1  0.54969000  0.77232000  0.12113000  1
  H  H153  1  0.50776000  0.81437000  0.11670000  1
  H  H154  1  0.20031000  0.77232000  0.62887000  1
  H  H155  1  0.24224000  0.81437000  0.63330000  1
  H  H156  1  0.20031000  0.27232000  0.12887000  1
  H  H157  1  0.24224000  0.31437000  0.13330000  1
  H  H158  1  0.36698000  0.29978000  0.20206000  1
  H  H159  1  0.39976000  0.30896000  0.24853000  1
  H  H160  1  0.70031000  0.77232000  0.12887000  1
  H  H161  1  0.74224000  0.81437000  0.13330000  1
  H  H162  1  0.86698000  0.79978000  0.20206000  1
  H  H163  1  0.89976000  0.80896000  0.24853000  1
  H  H164  1  0.85088000  0.77399000  0.14537000  1
  H  H165  1  0.70031000  0.27232000  0.62887000  1
  H  H166  1  0.74224000  0.31437000  0.63330000  1
  H  H167  1  0.86698000  0.29978000  0.70206000  1
  H  H168  1  0.89976000  0.30896000  0.74853000  1
  H  H169  1  0.54969000  0.47768000  0.12887000  1
  H  H170  1  0.50776000  0.43563000  0.13330000  1
  H  H171  1  0.54969000  0.97768000  0.62887000  1
  H  H172  1  0.50776000  0.93563000  0.63330000  1
  H  H173  1  0.38302000  0.95022000  0.70206000  1
  H  H174  1  0.35024000  0.94104000  0.74853000  1
  H  H175  1  0.04969000  0.47768000  0.62887000  1
  H  H176  1  0.00776000  0.43563000  0.63330000  1
  H  H177  1  0.04969000  0.97768000  0.12887000  1
  H  H178  1  0.00776000  0.93563000  0.13330000  1
  H  H179  1  0.70031000  0.97768000  0.62113000  1
  H  H180  1  0.74224000  0.93563000  0.61670000  1
  H  H181  1  0.86698000  0.95022000  0.54794000  1
  H  H182  1  0.89976000  0.94104000  0.50147000  1
  H  H183  1  0.70031000  0.47768000  0.12113000  1
  H  H184  1  0.74224000  0.43563000  0.11670000  1
  H  H185  1  0.20031000  0.97768000  0.12113000  1
  H  H186  1  0.24224000  0.93563000  0.11670000  1
  H  H187  1  0.36698000  0.95022000  0.04794000  1
  H  H188  1  0.39976000  0.94104000  0.00147000  1
  H  H189  1  0.20031000  0.47768000  0.62113000  1
  H  H190  1  0.24224000  0.43563000  0.61670000  1
  H  H191  1  0.36698000  0.45022000  0.54794000  1
  H  H192  1  0.39976000  0.44104000  0.50147000  1
  H  H193  1  0.79969000  0.37113000  0.22768000  1
  H  H194  1  0.75776000  0.36670000  0.18563000  1
  H  H195  1  0.79969000  0.87113000  0.72768000  1
  H  H196  1  0.75776000  0.86670000  0.68563000  1
  H  H197  1  0.29969000  0.37113000  0.72768000  1
  H  H198  1  0.25776000  0.36670000  0.68563000  1
  H  H199  1  0.13302000  0.29794000  0.70022000  1
  H  H200  1  0.10024000  0.25147000  0.69104000  1
  H  H201  1  0.29969000  0.87113000  0.22768000  1
  H  H202  1  0.25776000  0.86670000  0.18563000  1
  H  H203  1  0.13302000  0.79794000  0.20022000  1
  H  H204  1  0.10024000  0.75147000  0.19104000  1
  H  H205  1  0.95031000  0.87887000  0.72768000  1
  H  H206  1  0.99224000  0.88330000  0.68563000  1
  H  H207  1  0.11698000  0.95206000  0.70022000  1
  H  H208  1  0.14976000  0.99853000  0.69104000  1
  H  H209  1  0.95031000  0.37887000  0.22768000  1
  H  H210  1  0.99224000  0.38330000  0.18563000  1
  H  H211  1  0.11698000  0.45206000  0.20022000  1
  H  H212  1  0.14976000  0.49853000  0.19104000  1
  H  H213  1  0.45031000  0.87887000  0.22768000  1
  H  H214  1  0.49224000  0.88330000  0.18563000  1
  H  H215  1  0.45031000  0.37887000  0.72768000  1
  H  H216  1  0.49224000  0.38330000  0.68563000  1
  H  H217  1  0.29969000  0.37887000  0.02232000  1
  H  H218  1  0.25776000  0.38330000  0.06437000  1
  H  H219  1  0.29969000  0.87887000  0.52232000  1
  H  H220  1  0.25776000  0.88330000  0.56437000  1
  H  H221  1  0.79969000  0.37887000  0.52232000  1
  H  H222  1  0.75776000  0.38330000  0.56437000  1
  H  H223  1  0.63302000  0.45206000  0.54978000  1
  H  H224  1  0.60024000  0.49853000  0.55896000  1
  H  H225  1  0.79969000  0.87887000  0.02232000  1
  H  H226  1  0.75776000  0.88330000  0.06437000  1
  H  H227  1  0.63302000  0.95206000  0.04978000  1
  H  H228  1  0.60024000  0.99853000  0.05896000  1
  H  H229  1  0.45031000  0.87113000  0.52232000  1
  H  H230  1  0.49224000  0.86670000  0.56437000  1
  H  H231  1  0.61698000  0.79794000  0.54978000  1
  H  H232  1  0.64976000  0.75147000  0.55896000  1
  H  H233  1  0.45031000  0.37113000  0.02232000  1
  H  H234  1  0.49224000  0.36670000  0.06437000  1
  H  H235  1  0.61698000  0.29794000  0.04978000  1
  H  H236  1  0.64976000  0.25147000  0.05896000  1
  H  H237  1  0.95031000  0.87113000  0.02232000  1
  H  H238  1  0.99224000  0.86670000  0.06437000  1
  H  H239  1  0.95031000  0.37113000  0.52232000  1
  H  H240  1  0.99224000  0.36670000  0.56437000  1
  H  H241  1  0.87113000  0.52232000  0.45031000  1
  H  H242  1  0.86670000  0.56437000  0.49224000  1
  H  H243  1  0.87113000  0.02232000  0.95031000  1
  H  H244  1  0.86670000  0.06437000  0.99224000  1
  H  H245  1  0.79794000  0.04978000  0.11698000  1
  H  H246  1  0.75147000  0.05896000  0.14976000  1
  H  H247  1  0.37113000  0.52232000  0.95031000  1
  H  H248  1  0.36670000  0.56437000  0.99224000  1
  H  H249  1  0.37113000  0.02232000  0.45031000  1
  H  H250  1  0.36670000  0.06437000  0.49224000  1
  H  H251  1  0.29794000  0.04978000  0.61698000  1
  H  H252  1  0.25147000  0.05896000  0.64976000  1
  H  H253  1  0.37887000  0.02232000  0.29969000  1
  H  H254  1  0.38330000  0.06437000  0.25776000  1
  H  H255  1  0.37887000  0.52232000  0.79969000  1
  H  H256  1  0.38330000  0.56437000  0.75776000  1
  H  H257  1  0.87887000  0.02232000  0.79969000  1
  H  H258  1  0.88330000  0.06437000  0.75776000  1
  H  H259  1  0.95206000  0.04978000  0.63302000  1
  H  H260  1  0.99853000  0.05896000  0.60024000  1
  H  H261  1  0.87887000  0.52232000  0.29969000  1
  H  H262  1  0.88330000  0.56437000  0.25776000  1
  H  H263  1  0.95206000  0.54978000  0.13302000  1
  H  H264  1  0.99853000  0.55896000  0.10024000  1
  H  H265  1  0.87887000  0.72768000  0.95031000  1
  H  H266  1  0.88330000  0.68563000  0.99224000  1
  H  H267  1  0.87887000  0.22768000  0.45031000  1
  H  H268  1  0.88330000  0.18563000  0.49224000  1
  H  H269  1  0.37887000  0.72768000  0.45031000  1
  H  H270  1  0.38330000  0.68563000  0.49224000  1
  H  H271  1  0.45206000  0.70022000  0.61698000  1
  H  H272  1  0.49853000  0.69104000  0.64976000  1
  H  H273  1  0.37887000  0.22768000  0.95031000  1
  H  H274  1  0.38330000  0.18563000  0.99224000  1
  H  H275  1  0.45206000  0.20022000  0.11698000  1
  H  H276  1  0.49853000  0.19104000  0.14976000  1
  H  H277  1  0.37113000  0.22768000  0.79969000  1
  H  H278  1  0.36670000  0.18563000  0.75776000  1
  H  H279  1  0.37113000  0.72768000  0.29969000  1
  H  H280  1  0.36670000  0.68563000  0.25776000  1
  H  H281  1  0.29794000  0.70022000  0.13302000  1
  H  H282  1  0.25147000  0.69104000  0.10024000  1
  H  H283  1  0.87113000  0.22768000  0.29969000  1
  H  H284  1  0.86670000  0.18563000  0.25776000  1
  H  H285  1  0.87113000  0.72768000  0.79969000  1
  H  H286  1  0.86670000  0.68563000  0.75776000  1
  H  H287  1  0.79794000  0.70022000  0.63302000  1
  H  H288  1  0.75147000  0.69104000  0.60024000  1
  H  H289  1  0.02232000  0.29969000  0.37887000  1
  H  H290  1  0.06437000  0.25776000  0.38330000  1
  H  H291  1  0.04978000  0.13302000  0.45206000  1
  H  H292  1  0.05896000  0.10024000  0.49853000  1
  H  H293  1  0.02232000  0.79969000  0.87887000  1
  H  H294  1  0.06437000  0.75776000  0.88330000  1
  H  H295  1  0.04978000  0.63302000  0.95206000  1
  H  H296  1  0.05896000  0.60024000  0.99853000  1
  H  H297  1  0.52232000  0.29969000  0.87887000  1
  H  H298  1  0.56437000  0.25776000  0.88330000  1
  H  H299  1  0.54978000  0.13302000  0.95206000  1
  H  H300  1  0.55896000  0.10024000  0.99853000  1
  H  H301  1  0.52232000  0.79969000  0.37887000  1
  H  H302  1  0.56437000  0.75776000  0.38330000  1
  H  H303  1  0.54978000  0.63302000  0.45206000  1
  H  H304  1  0.55896000  0.60024000  0.49853000  1
  H  H305  1  0.52232000  0.45031000  0.87113000  1
  H  H306  1  0.56437000  0.49224000  0.86670000  1
  H  H307  1  0.52232000  0.95031000  0.37113000  1
  H  H308  1  0.56437000  0.99224000  0.36670000  1
  H  H309  1  0.02232000  0.45031000  0.37113000  1
  H  H310  1  0.06437000  0.49224000  0.36670000  1
  H  H311  1  0.02232000  0.95031000  0.87113000  1
  H  H312  1  0.06437000  0.99224000  0.86670000  1
  H  H313  1  0.22768000  0.79969000  0.37113000  1
  H  H314  1  0.18563000  0.75776000  0.36670000  1
  H  H315  1  0.20022000  0.63302000  0.29794000  1
  H  H316  1  0.19104000  0.60024000  0.25147000  1
  H  H317  1  0.22768000  0.29969000  0.87113000  1
  H  H318  1  0.18563000  0.25776000  0.86670000  1
  H  H319  1  0.20022000  0.13302000  0.79794000  1
  H  H320  1  0.19104000  0.10024000  0.75147000  1
  H  H321  1  0.72768000  0.79969000  0.87113000  1
  H  H322  1  0.68563000  0.75776000  0.86670000  1
  H  H323  1  0.70022000  0.63302000  0.79794000  1
  H  H324  1  0.69104000  0.60024000  0.75147000  1
  H  H325  1  0.72768000  0.29969000  0.37113000  1
  H  H326  1  0.68563000  0.25776000  0.36670000  1
  H  H327  1  0.70022000  0.13302000  0.29794000  1
  H  H328  1  0.69104000  0.10024000  0.25147000  1
  H  H329  1  0.72768000  0.95031000  0.87887000  1
  H  H330  1  0.68563000  0.99224000  0.88330000  1
  H  H331  1  0.72768000  0.45031000  0.37887000  1
  H  H332  1  0.68563000  0.49224000  0.38330000  1
  H  H333  1  0.22768000  0.95031000  0.37887000  1
  H  H334  1  0.18563000  0.99224000  0.38330000  1
  H  H335  1  0.22768000  0.45031000  0.87887000  1
  H  H336  1  0.18563000  0.49224000  0.88330000  1
  H  H337  1  0.87887000  0.95031000  0.72768000  1
  H  H338  1  0.88330000  0.99224000  0.68563000  1
  H  H339  1  0.87887000  0.45031000  0.22768000  1
  H  H340  1  0.88330000  0.49224000  0.18563000  1
  H  H341  1  0.37887000  0.95031000  0.22768000  1
  H  H342  1  0.38330000  0.99224000  0.18563000  1
  H  H343  1  0.45206000  0.11698000  0.20022000  1
  H  H344  1  0.49853000  0.14976000  0.19104000  1
  H  H345  1  0.37887000  0.45031000  0.72768000  1
  H  H346  1  0.38330000  0.49224000  0.68563000  1
  H  H347  1  0.45206000  0.61698000  0.70022000  1
  H  H348  1  0.49853000  0.64976000  0.69104000  1
  H  H349  1  0.37113000  0.79969000  0.22768000  1
  H  H350  1  0.36670000  0.75776000  0.18563000  1
  H  H351  1  0.37113000  0.29969000  0.72768000  1
  H  H352  1  0.36670000  0.25776000  0.68563000  1
  H  H353  1  0.29794000  0.13302000  0.70022000  1
  H  H354  1  0.25147000  0.10024000  0.69104000  1
  H  H355  1  0.87113000  0.79969000  0.72768000  1
  H  H356  1  0.86670000  0.75776000  0.68563000  1
  H  H357  1  0.87113000  0.29969000  0.22768000  1
  H  H358  1  0.86670000  0.25776000  0.18563000  1
  H  H359  1  0.79794000  0.13302000  0.20022000  1
  H  H360  1  0.75147000  0.10024000  0.19104000  1
  H  H361  1  0.87113000  0.45031000  0.52232000  1
  H  H362  1  0.86670000  0.49224000  0.56437000  1
  H  H363  1  0.79794000  0.61698000  0.54978000  1
  H  H364  1  0.75147000  0.64976000  0.55896000  1
  H  H365  1  0.87113000  0.95031000  0.02232000  1
  H  H366  1  0.86670000  0.99224000  0.06437000  1
  H  H367  1  0.37113000  0.45031000  0.02232000  1
  H  H368  1  0.36670000  0.49224000  0.06437000  1
  H  H369  1  0.29794000  0.61698000  0.04978000  1
  H  H370  1  0.25147000  0.64976000  0.05896000  1
  H  H371  1  0.37113000  0.95031000  0.52232000  1
  H  H372  1  0.36670000  0.99224000  0.56437000  1
  H  H373  1  0.37887000  0.29969000  0.02232000  1
  H  H374  1  0.38330000  0.25776000  0.06437000  1
  H  H375  1  0.37887000  0.79969000  0.52232000  1
  H  H376  1  0.38330000  0.75776000  0.56437000  1
  H  H377  1  0.87887000  0.29969000  0.52232000  1
  H  H378  1  0.88330000  0.25776000  0.56437000  1
  H  H379  1  0.95206000  0.13302000  0.54978000  1
  H  H380  1  0.99853000  0.10024000  0.55896000  1
  H  H381  1  0.87887000  0.79969000  0.02232000  1
  H  H382  1  0.88330000  0.75776000  0.06437000  1
  H  H383  1  0.95206000  0.63302000  0.04978000  1
  H  H384  1  0.99853000  0.60024000  0.05896000  1
  H  H385  1  0.72768000  0.87887000  0.95031000  1
  H  H386  1  0.68563000  0.88330000  0.99224000  1
  H  H387  1  0.72768000  0.37887000  0.45031000  1
  H  H388  1  0.68563000  0.38330000  0.49224000  1
  H  H389  1  0.22768000  0.87887000  0.45031000  1
  H  H390  1  0.18563000  0.88330000  0.49224000  1
  H  H391  1  0.20022000  0.95206000  0.61698000  1
  H  H392  1  0.19104000  0.99853000  0.64976000  1
  H  H393  1  0.22768000  0.37887000  0.95031000  1
  H  H394  1  0.18563000  0.38330000  0.99224000  1
  H  H395  1  0.20022000  0.45206000  0.11698000  1
  H  H396  1  0.19104000  0.49853000  0.14976000  1
  H  H397  1  0.22768000  0.37113000  0.79969000  1
  H  H398  1  0.18563000  0.36670000  0.75776000  1
  H  H399  1  0.22768000  0.87113000  0.29969000  1
  H  H400  1  0.18563000  0.86670000  0.25776000  1
  H  H401  1  0.72768000  0.37113000  0.29969000  1
  H  H402  1  0.68563000  0.36670000  0.25776000  1
  H  H403  1  0.70022000  0.29794000  0.13302000  1
  H  H404  1  0.69104000  0.25147000  0.10024000  1
  H  H405  1  0.72768000  0.87113000  0.79969000  1
  H  H406  1  0.68563000  0.86670000  0.75776000  1
  H  H407  1  0.70022000  0.79794000  0.63302000  1
  H  H408  1  0.69104000  0.75147000  0.60024000  1
  H  H409  1  0.52232000  0.87113000  0.45031000  1
  H  H410  1  0.56437000  0.86670000  0.49224000  1
  H  H411  1  0.52232000  0.37113000  0.95031000  1
  H  H412  1  0.56437000  0.36670000  0.99224000  1
  H  H413  1  0.02232000  0.87113000  0.95031000  1
  H  H414  1  0.06437000  0.86670000  0.99224000  1
  H  H415  1  0.04978000  0.79794000  0.11698000  1
  H  H416  1  0.05896000  0.75147000  0.14976000  1
  H  H417  1  0.02232000  0.37113000  0.45031000  1
  H  H418  1  0.06437000  0.36670000  0.49224000  1
  H  H419  1  0.04978000  0.29794000  0.61698000  1
  H  H420  1  0.05896000  0.25147000  0.64976000  1
  H  H421  1  0.02232000  0.37887000  0.29969000  1
  H  H422  1  0.06437000  0.38330000  0.25776000  1
  H  H423  1  0.02232000  0.87887000  0.79969000  1
  H  H424  1  0.06437000  0.88330000  0.75776000  1
  H  H425  1  0.52232000  0.37887000  0.79969000  1
  H  H426  1  0.56437000  0.38330000  0.75776000  1
  H  H427  1  0.54978000  0.45206000  0.63302000  1
  H  H428  1  0.55896000  0.49853000  0.60024000  1
  H  H429  1  0.52232000  0.87887000  0.29969000  1
  H  H430  1  0.56437000  0.88330000  0.25776000  1
  H  H431  1  0.54978000  0.95206000  0.13302000  1
  H  H432  1  0.55896000  0.99853000  0.10024000  1
  H  H433  1  0.95031000  0.72768000  0.87887000  1
  H  H434  1  0.99224000  0.68563000  0.88330000  1
  H  H435  1  0.95031000  0.22768000  0.37887000  1
  H  H436  1  0.99224000  0.18563000  0.38330000  1
  H  H437  1  0.45031000  0.72768000  0.37887000  1
  H  H438  1  0.49224000  0.68563000  0.38330000  1
  H  H439  1  0.45031000  0.22768000  0.87887000  1
  H  H440  1  0.49224000  0.18563000  0.88330000  1
  H  H441  1  0.79969000  0.22768000  0.37113000  1
  H  H442  1  0.75776000  0.18563000  0.36670000  1
  H  H443  1  0.79969000  0.72768000  0.87113000  1
  H  H444  1  0.75776000  0.68563000  0.86670000  1
  H  H445  1  0.29969000  0.22768000  0.87113000  1
  H  H446  1  0.25776000  0.18563000  0.86670000  1
  H  H447  1  0.29969000  0.72768000  0.37113000  1
  H  H448  1  0.25776000  0.68563000  0.36670000  1
  H  H449  1  0.45031000  0.52232000  0.87113000  1
  H  H450  1  0.49224000  0.56437000  0.86670000  1
  H  H451  1  0.61698000  0.54978000  0.79794000  1
  H  H452  1  0.64976000  0.55896000  0.75147000  1
  H  H453  1  0.45031000  0.02232000  0.37113000  1
  H  H454  1  0.49224000  0.06437000  0.36670000  1
  H  H455  1  0.61698000  0.04978000  0.29794000  1
  H  H456  1  0.64976000  0.05896000  0.25147000  1
  H  H457  1  0.95031000  0.52232000  0.37113000  1
  H  H458  1  0.99224000  0.56437000  0.36670000  1
  H  H459  1  0.11698000  0.54978000  0.29794000  1
  H  H460  1  0.14976000  0.55896000  0.25147000  1
  H  H461  1  0.95031000  0.02232000  0.87113000  1
  H  H462  1  0.99224000  0.06437000  0.86670000  1
  H  H463  1  0.11698000  0.04978000  0.79794000  1
  H  H464  1  0.14976000  0.05896000  0.75147000  1
  H  H465  1  0.29969000  0.02232000  0.37887000  1
  H  H466  1  0.25776000  0.06437000  0.38330000  1
  H  H467  1  0.13302000  0.04978000  0.45206000  1
  H  H468  1  0.10024000  0.05896000  0.49853000  1
  H  H469  1  0.29969000  0.52232000  0.87887000  1
  H  H470  1  0.25776000  0.56437000  0.88330000  1
  H  H471  1  0.13302000  0.54978000  0.95206000  1
  H  H472  1  0.10024000  0.55896000  0.99853000  1
  H  H473  1  0.79969000  0.02232000  0.87887000  1
  H  H474  1  0.75776000  0.06437000  0.88330000  1
  H  H475  1  0.63302000  0.04978000  0.95206000  1
  H  H476  1  0.60024000  0.05896000  0.99853000  1
  H  H477  1  0.79969000  0.52232000  0.37887000  1
  H  H478  1  0.75776000  0.56437000  0.38330000  1
  H  H479  1  0.63302000  0.54978000  0.45206000  1
  H  H480  1  0.60024000  0.55896000  0.49853000  1
  H  H481  1  0.20031000  0.62887000  0.77232000  1
  H  H482  1  0.24224000  0.63330000  0.81437000  1
  H  H483  1  0.20031000  0.12887000  0.27232000  1
  H  H484  1  0.24224000  0.13330000  0.31437000  1
  H  H485  1  0.36698000  0.20206000  0.29978000  1
  H  H486  1  0.39976000  0.24853000  0.30896000  1
  H  H487  1  0.70031000  0.62887000  0.27232000  1
  H  H488  1  0.74224000  0.63330000  0.31437000  1
  H  H489  1  0.86698000  0.70206000  0.29978000  1
  H  H490  1  0.89976000  0.74853000  0.30896000  1
  H  H491  1  0.70031000  0.12887000  0.77232000  1
  H  H492  1  0.74224000  0.13330000  0.81437000  1
  H  H493  1  0.86698000  0.20206000  0.79978000  1
  H  H494  1  0.89976000  0.24853000  0.80896000  1
  H  H495  1  0.04969000  0.12113000  0.27232000  1
  H  H496  1  0.00776000  0.11670000  0.31437000  1
  H  H497  1  0.88302000  0.04794000  0.29978000  1
  H  H498  1  0.85024000  0.00147000  0.30896000  1
  H  H499  1  0.04969000  0.62113000  0.77232000  1
  H  H500  1  0.00776000  0.61670000  0.81437000  1
  H  H501  1  0.88302000  0.54794000  0.79978000  1
  H  H502  1  0.85024000  0.50147000  0.80896000  1
  H  H503  1  0.54969000  0.12113000  0.77232000  1
  H  H504  1  0.50776000  0.11670000  0.81437000  1
  H  H505  1  0.38302000  0.04794000  0.79978000  1
  H  H506  1  0.35024000  0.00147000  0.80896000  1
  H  H507  1  0.54969000  0.62113000  0.27232000  1
  H  H508  1  0.50776000  0.61670000  0.31437000  1
  H  H509  1  0.70031000  0.62113000  0.97768000  1
  H  H510  1  0.74224000  0.61670000  0.93563000  1
  H  H511  1  0.70031000  0.12113000  0.47768000  1
  H  H512  1  0.74224000  0.11670000  0.43563000  1
  H  H513  1  0.20031000  0.62113000  0.47768000  1
  H  H514  1  0.24224000  0.61670000  0.43563000  1
  H  H515  1  0.36698000  0.54794000  0.45022000  1
  H  H516  1  0.39976000  0.50147000  0.44104000  1
  H  H517  1  0.20031000  0.12113000  0.97768000  1
  H  H518  1  0.24224000  0.11670000  0.93563000  1
  H  H519  1  0.54969000  0.12887000  0.47768000  1
  H  H520  1  0.50776000  0.13330000  0.43563000  1
  H  H521  1  0.54969000  0.62887000  0.97768000  1
  H  H522  1  0.50776000  0.63330000  0.93563000  1
  H  H523  1  0.38302000  0.70206000  0.95022000  1
  H  H524  1  0.35024000  0.74853000  0.94104000  1
  H  H525  1  0.04969000  0.12887000  0.97768000  1
  H  H526  1  0.00776000  0.13330000  0.93563000  1
  H  H527  1  0.04969000  0.62887000  0.47768000  1
  H  H528  1  0.00776000  0.63330000  0.43563000  1
  H  H529  1  0.12887000  0.47768000  0.54969000  1
  H  H530  1  0.13330000  0.43563000  0.50776000  1
  H  H531  1  0.20206000  0.45022000  0.38302000  1
  H  H532  1  0.24853000  0.44104000  0.35024000  1
  H  H533  1  0.12887000  0.97768000  0.04969000  1
  H  H534  1  0.13330000  0.93563000  0.00776000  1
  H  H535  1  0.20206000  0.95022000  0.88302000  1
  H  H536  1  0.24853000  0.94104000  0.85024000  1
  H  H537  1  0.62887000  0.47768000  0.04969000  1
  H  H538  1  0.63330000  0.43563000  0.00776000  1
  H  H539  1  0.70206000  0.45022000  0.88302000  1
  H  H540  1  0.74853000  0.44104000  0.85024000  1
  H  H541  1  0.62887000  0.97768000  0.54969000  1
  H  H542  1  0.63330000  0.93563000  0.50776000  1
  H  H543  1  0.70206000  0.95022000  0.38302000  1
  H  H544  1  0.74853000  0.94104000  0.35024000  1
  H  H545  1  0.62113000  0.97768000  0.70031000  1
  H  H546  1  0.61670000  0.93563000  0.74224000  1
  H  H547  1  0.54794000  0.95022000  0.86698000  1
  H  H548  1  0.50147000  0.94104000  0.89976000  1
  H  H549  1  0.62113000  0.47768000  0.20031000  1
  H  H550  1  0.61670000  0.43563000  0.24224000  1
  H  H551  1  0.54794000  0.45022000  0.36698000  1
  H  H552  1  0.50147000  0.44104000  0.39976000  1
  H  H553  1  0.12113000  0.97768000  0.20031000  1
  H  H554  1  0.11670000  0.93563000  0.24224000  1
  H  H555  1  0.12113000  0.47768000  0.70031000  1
  H  H556  1  0.11670000  0.43563000  0.74224000  1
  H  H557  1  0.12113000  0.27232000  0.04969000  1
  H  H558  1  0.11670000  0.31437000  0.00776000  1
  H  H559  1  0.04794000  0.29978000  0.88302000  1
  H  H560  1  0.00147000  0.30896000  0.85024000  1
  H  H561  1  0.12113000  0.77232000  0.54969000  1
  H  H562  1  0.11670000  0.81437000  0.50776000  1
  H  H563  1  0.04794000  0.79978000  0.38302000  1
  H  H564  1  0.00147000  0.80896000  0.35024000  1
  H  H565  1  0.62113000  0.27232000  0.54969000  1
  H  H566  1  0.61670000  0.31437000  0.50776000  1
  H  H567  1  0.62113000  0.77232000  0.04969000  1
  H  H568  1  0.61670000  0.81437000  0.00776000  1
  H  H569  1  0.62887000  0.77232000  0.20031000  1
  H  H570  1  0.63330000  0.81437000  0.24224000  1
  H  H571  1  0.62887000  0.27232000  0.70031000  1
  H  H572  1  0.63330000  0.31437000  0.74224000  1
  H  H573  1  0.12887000  0.77232000  0.70031000  1
  H  H574  1  0.13330000  0.81437000  0.74224000  1
  H  H575  1  0.12887000  0.27232000  0.20031000  1
  H  H576  1  0.13330000  0.31437000  0.24224000  1
  H  H577  1  0.97768000  0.70031000  0.62113000  1
  H  H578  1  0.93563000  0.74224000  0.61670000  1
  H  H579  1  0.95022000  0.86698000  0.54794000  1
  H  H580  1  0.94104000  0.89976000  0.50147000  1
  H  H581  1  0.97768000  0.20031000  0.12113000  1
  H  H582  1  0.93563000  0.24224000  0.11670000  1
  H  H583  1  0.47768000  0.70031000  0.12113000  1
  H  H584  1  0.43563000  0.74224000  0.11670000  1
  H  H585  1  0.45022000  0.86698000  0.04794000  1
  H  H586  1  0.44104000  0.89976000  0.00147000  1
  H  H587  1  0.47768000  0.20031000  0.62113000  1
  H  H588  1  0.43563000  0.24224000  0.61670000  1
  H  H589  1  0.45022000  0.36698000  0.54794000  1
  H  H590  1  0.44104000  0.39976000  0.50147000  1
  H  H591  1  0.47768000  0.54969000  0.12887000  1
  H  H592  1  0.43563000  0.50776000  0.13330000  1
  H  H593  1  0.45022000  0.38302000  0.20206000  1
  H  H594  1  0.44104000  0.35024000  0.24853000  1
  H  H595  1  0.47768000  0.04969000  0.62887000  1
  H  H596  1  0.43563000  0.00776000  0.63330000  1
  H  H597  1  0.97768000  0.54969000  0.62887000  1
  H  H598  1  0.93563000  0.50776000  0.63330000  1
  H  H599  1  0.95022000  0.38302000  0.70206000  1
  H  H600  1  0.94104000  0.35024000  0.74853000  1
  H  H601  1  0.97768000  0.04969000  0.12887000  1
  H  H602  1  0.93563000  0.00776000  0.13330000  1
  H  H603  1  0.95022000  0.88302000  0.20206000  1
  H  H604  1  0.94104000  0.85024000  0.24853000  1
  H  H605  1  0.77232000  0.20031000  0.62887000  1
  H  H606  1  0.81437000  0.24224000  0.63330000  1
  H  H607  1  0.77232000  0.70031000  0.12887000  1
  H  H608  1  0.81437000  0.74224000  0.13330000  1
  H  H609  1  0.27232000  0.20031000  0.12887000  1
  H  H610  1  0.31437000  0.24224000  0.13330000  1
  H  H611  1  0.27232000  0.70031000  0.62887000  1
  H  H612  1  0.31437000  0.74224000  0.63330000  1
  H  H613  1  0.29978000  0.86698000  0.70206000  1
  H  H614  1  0.30896000  0.89976000  0.74853000  1
  H  H615  1  0.27232000  0.04969000  0.12113000  1
  H  H616  1  0.31437000  0.00776000  0.11670000  1
  H  H617  1  0.27232000  0.54969000  0.62113000  1
  H  H618  1  0.31437000  0.50776000  0.61670000  1
  H  H619  1  0.77232000  0.04969000  0.62113000  1
  H  H620  1  0.81437000  0.00776000  0.61670000  1
  H  H621  1  0.77232000  0.54969000  0.12113000  1
  H  H622  1  0.81437000  0.50776000  0.11670000  1
  H  H623  1  0.79978000  0.38302000  0.04794000  1
  H  H624  1  0.80896000  0.35024000  0.00147000  1
  H  H625  1  0.81880000  0.67289000  0.91036000  1
  H  H626  1  0.91036000  0.67289000  0.81880000  1
  H  H627  1  0.90493000  0.72473000  0.85782000  1
  H  H628  1  0.85782000  0.72473000  0.90493000  1
  H  H629  1  0.77399000  0.60463000  0.89912000  1
  H  H630  1  0.89912000  0.60463000  0.77399000  1
  H  H631  1  0.94762000  0.62319000  0.83705000  1
  H  H632  1  0.83705000  0.62319000  0.94762000  1
  H  H633  1  0.10088000  0.39537000  0.22601000  1
  H  H634  1  0.22601000  0.39537000  0.10088000  1
  H  H635  1  0.16295000  0.37681000  0.05238000  1
  H  H636  1  0.05238000  0.37681000  0.16295000  1
  H  H637  1  0.08964000  0.32711000  0.18120000  1
  H  H638  1  0.18120000  0.32711000  0.08964000  1
  H  H639  1  0.14218000  0.27527000  0.09507000  1
  H  H640  1  0.09507000  0.27527000  0.14218000  1
  H  H641  1  0.22601000  0.14912000  0.85463000  1
  H  H642  1  0.10088000  0.02399000  0.85463000  1
  H  H643  1  0.05238000  0.08705000  0.87319000  1
  H  H644  1  0.09507000  0.10782000  0.97473000  1
  H  H645  1  0.16295000  0.19762000  0.87319000  1
  H  H646  1  0.14218000  0.15493000  0.97473000  1
  H  H647  1  0.18120000  0.16036000  0.92289000  1
  H  H648  1  0.08964000  0.06880000  0.92289000  1
  H  H649  1  0.10088000  0.89537000  0.72601000  1
  H  H650  1  0.22601000  0.89537000  0.60088000  1
  H  H651  1  0.05238000  0.87681000  0.66295000  1
  H  H652  1  0.16295000  0.87681000  0.55238000  1
  H  H653  1  0.08964000  0.82711000  0.68120000  1
  H  H654  1  0.18120000  0.82711000  0.58964000  1
  H  H655  1  0.09507000  0.77527000  0.64218000  1
  H  H656  1  0.14218000  0.77527000  0.59507000  1
  H  H657  1  0.91295000  0.80238000  0.62319000  1
  H  H658  1  0.97601000  0.85088000  0.60463000  1
  H  H659  1  0.85088000  0.97601000  0.60463000  1
  H  H660  1  0.80238000  0.91295000  0.62319000  1
  H  H661  1  0.83964000  0.93120000  0.67289000  1
  H  H662  1  0.93120000  0.83964000  0.67289000  1
  H  H663  1  0.84507000  0.89218000  0.72473000  1
  H  H664  1  0.89218000  0.84507000  0.72473000  1
  H  H665  1  0.60463000  0.97601000  0.85088000  1
  H  H666  1  0.62319000  0.91295000  0.80238000  1
  H  H667  1  0.60463000  0.85088000  0.97601000  1
  H  H668  1  0.67289000  0.93120000  0.83964000  1
  H  H669  1  0.62319000  0.80238000  0.91295000  1
  H  H670  1  0.72473000  0.89218000  0.84507000  1
  H  H671  1  0.67289000  0.83964000  0.93120000  1
  H  H672  1  0.72473000  0.84507000  0.89218000  1
  H  H673  1  0.39537000  0.22601000  0.10088000  1
  H  H674  1  0.39537000  0.10088000  0.22601000  1
  H  H675  1  0.37681000  0.16295000  0.05238000  1
  H  H676  1  0.37681000  0.05238000  0.16295000  1
  H  H677  1  0.32711000  0.18120000  0.08964000  1
  H  H678  1  0.32711000  0.08964000  0.18120000  1
  H  H679  1  0.27527000  0.09507000  0.14218000  1
  H  H680  1  0.27527000  0.14218000  0.09507000  1
  H  H681  1  0.30238000  0.91295000  0.12319000  1
  H  H682  1  0.35088000  0.97601000  0.10463000  1
  H  H683  1  0.47601000  0.85088000  0.10463000  1
  H  H684  1  0.41295000  0.80238000  0.12319000  1
  H  H685  1  0.34507000  0.89218000  0.22473000  1
  H  H686  1  0.33964000  0.93120000  0.17289000  1
  H  H687  1  0.39218000  0.84507000  0.22473000  1
  H  H688  1  0.43120000  0.83964000  0.17289000  1
  H  H689  1  0.85463000  0.14912000  0.22601000  1
  H  H690  1  0.87319000  0.19762000  0.16295000  1
  H  H691  1  0.85463000  0.02399000  0.10088000  1
  H  H692  1  0.92289000  0.06880000  0.08964000  1
  H  H693  1  0.92289000  0.16036000  0.18120000  1
  H  H694  1  0.87319000  0.08705000  0.05238000  1
  H  H695  1  0.97473000  0.10782000  0.09507000  1
  H  H696  1  0.97473000  0.15493000  0.14218000  1
  H  H697  1  0.77399000  0.10463000  0.39912000  1
  H  H698  1  0.89912000  0.10463000  0.27399000  1
  H  H699  1  0.94762000  0.12319000  0.33705000  1
  H  H700  1  0.83705000  0.12319000  0.44762000  1
  H  H701  1  0.81880000  0.17289000  0.41036000  1
  H  H702  1  0.91036000  0.17289000  0.31880000  1
  H  H703  1  0.90493000  0.22473000  0.35782000  1
  H  H704  1  0.85782000  0.22473000  0.40493000  1
  H  H705  1  0.14912000  0.02399000  0.39537000  1
  H  H706  1  0.19762000  0.08705000  0.37681000  1
  H  H707  1  0.02399000  0.14912000  0.39537000  1
  H  H708  1  0.08705000  0.19762000  0.37681000  1
  H  H709  1  0.06880000  0.16036000  0.32711000  1
  H  H710  1  0.16036000  0.06880000  0.32711000  1
  H  H711  1  0.10782000  0.15493000  0.27527000  1
  H  H712  1  0.15493000  0.10782000  0.27527000  1
  H  H713  1  0.14912000  0.85463000  0.22601000  1
  H  H714  1  0.16036000  0.92289000  0.18120000  1
  H  H715  1  0.02399000  0.85463000  0.10088000  1
  H  H716  1  0.06880000  0.92289000  0.08964000  1
  H  H717  1  0.08705000  0.87319000  0.05238000  1
  H  H718  1  0.10782000  0.97473000  0.09507000  1
  H  H719  1  0.19762000  0.87319000  0.16295000  1
  H  H720  1  0.15493000  0.97473000  0.14218000  1
  H  H721  1  0.14537000  0.85088000  0.77399000  1
  H  H722  1  0.14537000  0.97601000  0.89912000  1
  H  H723  1  0.12681000  0.91295000  0.94762000  1
  H  H724  1  0.12681000  0.80238000  0.83705000  1
  H  H725  1  0.07711000  0.83964000  0.81880000  1
  H  H726  1  0.07711000  0.93120000  0.91036000  1
  H  H727  1  0.02527000  0.89218000  0.90493000  1
  H  H728  1  0.02527000  0.84507000  0.85782000  1
  H  H729  1  0.89537000  0.52399000  0.14912000  1
  H  H730  1  0.82711000  0.56880000  0.16036000  1
  H  H731  1  0.89537000  0.64912000  0.02399000  1
  H  H732  1  0.82711000  0.66036000  0.06880000  1
  H  H733  1  0.87681000  0.69762000  0.08705000  1
  H  H734  1  0.77527000  0.65493000  0.10782000  1
  H  H735  1  0.87681000  0.58705000  0.19762000  1
  H  H736  1  0.77527000  0.60782000  0.15493000  1
  H  H737  1  0.89537000  0.02399000  0.64912000  1
  H  H738  1  0.87681000  0.08705000  0.69762000  1
  H  H739  1  0.82711000  0.06880000  0.66036000  1
  H  H740  1  0.89537000  0.14912000  0.52399000  1
  H  H741  1  0.82711000  0.16036000  0.56880000  1
  H  H742  1  0.77527000  0.15493000  0.60782000  1
  H  H743  1  0.77527000  0.10782000  0.65493000  1
  H  H744  1  0.87681000  0.19762000  0.58705000  1
  H  H745  1  0.97601000  0.89912000  0.14537000  1
  H  H746  1  0.91295000  0.94762000  0.12681000  1
  H  H747  1  0.80238000  0.83705000  0.12681000  1
  H  H748  1  0.83964000  0.81880000  0.07711000  1
  H  H749  1  0.93120000  0.91036000  0.07711000  1
  H  H750  1  0.89218000  0.90493000  0.02527000  1
  H  H751  1  0.84507000  0.85782000  0.02527000  1
  H  H752  1  0.02399000  0.64912000  0.89537000  1
  H  H753  1  0.14912000  0.52399000  0.89537000  1
  H  H754  1  0.06880000  0.66036000  0.82711000  1
  H  H755  1  0.16036000  0.56880000  0.82711000  1
  H  H756  1  0.10782000  0.65493000  0.77527000  1
  H  H757  1  0.15493000  0.60782000  0.77527000  1
  H  H758  1  0.08705000  0.69762000  0.87681000  1
  H  H759  1  0.19762000  0.58705000  0.87681000  1
  H  H760  1  0.39912000  0.64537000  0.97601000  1
  H  H761  1  0.44762000  0.62681000  0.91295000  1
  H  H762  1  0.27399000  0.64537000  0.85088000  1
  H  H763  1  0.31880000  0.57711000  0.83964000  1
  H  H764  1  0.41036000  0.57711000  0.93120000  1
  H  H765  1  0.40493000  0.52527000  0.89218000  1
  H  H766  1  0.33705000  0.62681000  0.80238000  1
  H  H767  1  0.35782000  0.52527000  0.84507000  1
  H  H768  1  0.27399000  0.85088000  0.64537000  1
  H  H769  1  0.33705000  0.80238000  0.62681000  1
  H  H770  1  0.39912000  0.97601000  0.64537000  1
  H  H771  1  0.41036000  0.93120000  0.57711000  1
  H  H772  1  0.31880000  0.83964000  0.57711000  1
  H  H773  1  0.35782000  0.84507000  0.52527000  1
  H  H774  1  0.44762000  0.91295000  0.62681000  1
  H  H775  1  0.40493000  0.89218000  0.52527000  1
  H  H776  1  0.97601000  0.64537000  0.39912000  1
  H  H777  1  0.93120000  0.57711000  0.41036000  1
  H  H778  1  0.83964000  0.57711000  0.31880000  1
  H  H779  1  0.80238000  0.62681000  0.33705000  1
  H  H780  1  0.84507000  0.52527000  0.35782000  1
  H  H781  1  0.91295000  0.62681000  0.44762000  1
  H  H782  1  0.89218000  0.52527000  0.40493000  1
  H  H783  1  0.85088000  0.64537000  0.27399000  1
  H  H784  1  0.89912000  0.27399000  0.10463000  1
  H  H785  1  0.91036000  0.31880000  0.17289000  1
  H  H786  1  0.77399000  0.39912000  0.10463000  1
  H  H787  1  0.81880000  0.41036000  0.17289000  1
  H  H788  1  0.94762000  0.33705000  0.12319000  1
  H  H789  1  0.90493000  0.35782000  0.22473000  1
  H  H790  1  0.83705000  0.44762000  0.12319000  1
  H  H791  1  0.85782000  0.40493000  0.22473000  1
  H  H792  1  0.60088000  0.35463000  0.02399000  1
  H  H793  1  0.58964000  0.42289000  0.06880000  1
  H  H794  1  0.72601000  0.35463000  0.14912000  1
  H  H795  1  0.68120000  0.42289000  0.16036000  1
  H  H796  1  0.66295000  0.37319000  0.19762000  1
  H  H797  1  0.64218000  0.47473000  0.15493000  1
  H  H798  1  0.55238000  0.37319000  0.08705000  1
  H  H799  1  0.59507000  0.47473000  0.10782000  1
  H  H800  1  0.72601000  0.14912000  0.35463000  1
  H  H801  1  0.68120000  0.16036000  0.42289000  1
  H  H802  1  0.60088000  0.02399000  0.35463000  1
  H  H803  1  0.58964000  0.06880000  0.42289000  1
  H  H804  1  0.55238000  0.08705000  0.37319000  1
  H  H805  1  0.59507000  0.10782000  0.47473000  1
  H  H806  1  0.66295000  0.19762000  0.37319000  1
  H  H807  1  0.64218000  0.15493000  0.47473000  1
  H  H808  1  0.10463000  0.89912000  0.27399000  1
  H  H809  1  0.17289000  0.91036000  0.31880000  1
  H  H810  1  0.10463000  0.77399000  0.39912000  1
  H  H811  1  0.17289000  0.81880000  0.41036000  1
  H  H812  1  0.12319000  0.94762000  0.33705000  1
  H  H813  1  0.22473000  0.90493000  0.35782000  1
  H  H814  1  0.12319000  0.83705000  0.44762000  1
  H  H815  1  0.22473000  0.85782000  0.40493000  1
  H  H816  1  0.60463000  0.35088000  0.47601000  1
  H  H817  1  0.67289000  0.33964000  0.43120000  1
  H  H818  1  0.60463000  0.47601000  0.35088000  1
  H  H819  1  0.67289000  0.43120000  0.33964000  1
  H  H820  1  0.62319000  0.30238000  0.41295000  1
  H  H821  1  0.72473000  0.34507000  0.39218000  1
  H  H822  1  0.72473000  0.39218000  0.34507000  1
  H  H823  1  0.62319000  0.41295000  0.30238000  1
  H  H824  1  0.32711000  0.68120000  0.58964000  1
  H  H825  1  0.39537000  0.60088000  0.72601000  1
  H  H826  1  0.32711000  0.58964000  0.68120000  1
  H  H827  1  0.37681000  0.55238000  0.66295000  1
  H  H828  1  0.27527000  0.59507000  0.64218000  1
  H  H829  1  0.27527000  0.64218000  0.59507000  1
  H  H830  1  0.39537000  0.72601000  0.60088000  1
  H  H831  1  0.37681000  0.66295000  0.55238000  1
  H  H832  1  0.64537000  0.85088000  0.27399000  1
  H  H833  1  0.57711000  0.83964000  0.31880000  1
  H  H834  1  0.64537000  0.97601000  0.39912000  1
  H  H835  1  0.57711000  0.93120000  0.41036000  1
  H  H836  1  0.62681000  0.91295000  0.44762000  1
  H  H837  1  0.52527000  0.89218000  0.40493000  1
  H  H838  1  0.62681000  0.80238000  0.33705000  1
  H  H839  1  0.52527000  0.84507000  0.35782000  1
  H  H840  1  0.52399000  0.64912000  0.39537000  1
  H  H841  1  0.56880000  0.66036000  0.32711000  1
  H  H842  1  0.64912000  0.52399000  0.39537000  1
  H  H843  1  0.66036000  0.56880000  0.32711000  1
  H  H844  1  0.69762000  0.58705000  0.37681000  1
  H  H845  1  0.65493000  0.60782000  0.27527000  1
  H  H846  1  0.58705000  0.69762000  0.37681000  1
  H  H847  1  0.60782000  0.65493000  0.27527000  1
  H  H848  1  0.47601000  0.60463000  0.35088000  1
  H  H849  1  0.43120000  0.67289000  0.33964000  1
  H  H850  1  0.35088000  0.60463000  0.47601000  1
  H  H851  1  0.33964000  0.67289000  0.43120000  1
  H  H852  1  0.30238000  0.62319000  0.41295000  1
  H  H853  1  0.34507000  0.72473000  0.39218000  1
  H  H854  1  0.41295000  0.62319000  0.30238000  1
  H  H855  1  0.39218000  0.72473000  0.34507000  1
  H  H856  1  0.22601000  0.64912000  0.35463000  1
  H  H857  1  0.18120000  0.66036000  0.42289000  1
  H  H858  1  0.10088000  0.52399000  0.35463000  1
  H  H859  1  0.08964000  0.56880000  0.42289000  1
  H  H860  1  0.05238000  0.58705000  0.37319000  1
  H  H861  1  0.09507000  0.60782000  0.47473000  1
  H  H862  1  0.16295000  0.69762000  0.37319000  1
  H  H863  1  0.14218000  0.65493000  0.47473000  1
  H  H864  1  0.10463000  0.39912000  0.77399000  1
  H  H865  1  0.17289000  0.41036000  0.81880000  1
  H  H866  1  0.10463000  0.27399000  0.89912000  1
  H  H867  1  0.17289000  0.31880000  0.91036000  1
  H  H868  1  0.12319000  0.44762000  0.83705000  1
  H  H869  1  0.22473000  0.40493000  0.85782000  1
  H  H870  1  0.12319000  0.33705000  0.94762000  1
  H  H871  1  0.22473000  0.35782000  0.90493000  1
  H  H872  1  0.85463000  0.72601000  0.64912000  1
  H  H873  1  0.92289000  0.68120000  0.66036000  1
  H  H874  1  0.85463000  0.60088000  0.52399000  1
  H  H875  1  0.92289000  0.58964000  0.56880000  1
  H  H876  1  0.87319000  0.55238000  0.58705000  1
  H  H877  1  0.97473000  0.59507000  0.60782000  1
  H  H878  1  0.87319000  0.66295000  0.69762000  1
  H  H879  1  0.97473000  0.64218000  0.65493000  1
  H  H880  1  0.72601000  0.64912000  0.85463000  1
  H  H881  1  0.60088000  0.52399000  0.85463000  1
  H  H882  1  0.58964000  0.56880000  0.92289000  1
  H  H883  1  0.55238000  0.58705000  0.87319000  1
  H  H884  1  0.59507000  0.60782000  0.97473000  1
  H  H885  1  0.66295000  0.69762000  0.87319000  1
  H  H886  1  0.64218000  0.65493000  0.97473000  1
  H  H887  1  0.68120000  0.66036000  0.92289000  1
  H  H888  1  0.60088000  0.85463000  0.52399000  1
  H  H889  1  0.58964000  0.92289000  0.56880000  1
  H  H890  1  0.72601000  0.85463000  0.64912000  1
  H  H891  1  0.68120000  0.92289000  0.66036000  1
  H  H892  1  0.66295000  0.87319000  0.69762000  1
  H  H893  1  0.64218000  0.97473000  0.65493000  1
  H  H894  1  0.55238000  0.87319000  0.58705000  1
  H  H895  1  0.59507000  0.97473000  0.60782000  1
  H  H896  1  0.85088000  0.27399000  0.64537000  1
  H  H897  1  0.83964000  0.31880000  0.57711000  1
  H  H898  1  0.97601000  0.39912000  0.64537000  1
  H  H899  1  0.93120000  0.41036000  0.57711000  1
  H  H900  1  0.91295000  0.44762000  0.62681000  1
  H  H901  1  0.89218000  0.40493000  0.52527000  1
  H  H902  1  0.80238000  0.33705000  0.62681000  1
  H  H903  1  0.84507000  0.35782000  0.52527000  1
  H  H904  1  0.97601000  0.14537000  0.89912000  1
  H  H905  1  0.93120000  0.07711000  0.91036000  1
  H  H906  1  0.85088000  0.14537000  0.77399000  1
  H  H907  1  0.83964000  0.07711000  0.81880000  1
  H  H908  1  0.80238000  0.12681000  0.83705000  1
  H  H909  1  0.84507000  0.02527000  0.85782000  1
  H  H910  1  0.91295000  0.12681000  0.94762000  1
  H  H911  1  0.89218000  0.02527000  0.90493000  1
  H  H912  1  0.64537000  0.35088000  0.77399000  1
  H  H913  1  0.57711000  0.33964000  0.81880000  1
  H  H914  1  0.64537000  0.47601000  0.89912000  1
  H  H915  1  0.57711000  0.43120000  0.91036000  1
  H  H916  1  0.52527000  0.34507000  0.85782000  1
  H  H917  1  0.52527000  0.39218000  0.90493000  1
  H  H918  1  0.62681000  0.30238000  0.83705000  1
  H  H919  1  0.62681000  0.41295000  0.94762000  1
  H  H920  1  0.52399000  0.14912000  0.89537000  1
  H  H921  1  0.56880000  0.16036000  0.82711000  1
  H  H922  1  0.64912000  0.02399000  0.89537000  1
  H  H923  1  0.66036000  0.06880000  0.82711000  1
  H  H924  1  0.58705000  0.19762000  0.87681000  1
  H  H925  1  0.60782000  0.15493000  0.77527000  1
  H  H926  1  0.69762000  0.08705000  0.87681000  1
  H  H927  1  0.65493000  0.10782000  0.77527000  1
  H  H928  1  0.16036000  0.42289000  0.68120000  1
  H  H929  1  0.02399000  0.35463000  0.60088000  1
  H  H930  1  0.06880000  0.42289000  0.58964000  1
  H  H931  1  0.08705000  0.37319000  0.55238000  1
  H  H932  1  0.10782000  0.47473000  0.59507000  1
  H  H933  1  0.15493000  0.47473000  0.64218000  1
  H  H934  1  0.14912000  0.35463000  0.72601000  1
  H  H935  1  0.19762000  0.37319000  0.66295000  1
  H  H936  1  0.64912000  0.39537000  0.52399000  1
  H  H937  1  0.66036000  0.32711000  0.56880000  1
  H  H938  1  0.52399000  0.39537000  0.64912000  1
  H  H939  1  0.56880000  0.32711000  0.66036000  1
  H  H940  1  0.69762000  0.37681000  0.58705000  1
  H  H941  1  0.65493000  0.27527000  0.60782000  1
  H  H942  1  0.58705000  0.37681000  0.69762000  1
  H  H943  1  0.60782000  0.27527000  0.65493000  1
  H  H944  1  0.64912000  0.89537000  0.02399000  1
  H  H945  1  0.66036000  0.82711000  0.06880000  1
  H  H946  1  0.52399000  0.89537000  0.14912000  1
  H  H947  1  0.56880000  0.82711000  0.16036000  1
  H  H948  1  0.58705000  0.87681000  0.19762000  1
  H  H949  1  0.60782000  0.77527000  0.15493000  1
  H  H950  1  0.69762000  0.87681000  0.08705000  1
  H  H951  1  0.65493000  0.77527000  0.10782000  1
  H  H952  1  0.47601000  0.14537000  0.39912000  1
  H  H953  1  0.43120000  0.07711000  0.41036000  1
  H  H954  1  0.35088000  0.14537000  0.27399000  1
  H  H955  1  0.33964000  0.07711000  0.31880000  1
  H  H956  1  0.41295000  0.12681000  0.44762000  1
  H  H957  1  0.39218000  0.02527000  0.40493000  1
  H  H958  1  0.30238000  0.12681000  0.33705000  1
  H  H959  1  0.34507000  0.02527000  0.35782000  1
  H  H960  1  0.42289000  0.06880000  0.58964000  1
  H  H961  1  0.42289000  0.16036000  0.68120000  1
  H  H962  1  0.47473000  0.10782000  0.59507000  1
  H  H963  1  0.47473000  0.15493000  0.64218000  1
  H  H964  1  0.35463000  0.02399000  0.60088000  1
  H  H965  1  0.37319000  0.08705000  0.55238000  1
  H  H966  1  0.35463000  0.14912000  0.72601000  1
  H  H967  1  0.37319000  0.19762000  0.66295000  1
  H  H968  1  0.47601000  0.35088000  0.60463000  1
  H  H969  1  0.41295000  0.30238000  0.62319000  1
  H  H970  1  0.35088000  0.47601000  0.60463000  1
  H  H971  1  0.33964000  0.43120000  0.67289000  1
  H  H972  1  0.43120000  0.33964000  0.67289000  1
  H  H973  1  0.39218000  0.34507000  0.72473000  1
  H  H974  1  0.30238000  0.41295000  0.62319000  1
  H  H975  1  0.34507000  0.39218000  0.72473000  1
  H  H976  1  0.14537000  0.35088000  0.27399000  1
  H  H977  1  0.07711000  0.33964000  0.31880000  1
  H  H978  1  0.14537000  0.47601000  0.39912000  1
  H  H979  1  0.07711000  0.43120000  0.41036000  1
  H  H980  1  0.12681000  0.30238000  0.33705000  1
  H  H981  1  0.02527000  0.34507000  0.35782000  1
  H  H982  1  0.12681000  0.41295000  0.44762000  1
  H  H983  1  0.02527000  0.39218000  0.40493000  1
  H  H984  1  0.27399000  0.10463000  0.89912000  1
  H  H985  1  0.31880000  0.17289000  0.91036000  1
  H  H986  1  0.39912000  0.10463000  0.77399000  1
  H  H987  1  0.41036000  0.17289000  0.81880000  1
  H  H988  1  0.33705000  0.12319000  0.94762000  1
  H  H989  1  0.35782000  0.22473000  0.90493000  1
  H  H990  1  0.44762000  0.12319000  0.83705000  1
  H  H991  1  0.40493000  0.22473000  0.85782000  1
  H  H992  1  0.35463000  0.72601000  0.14912000  1
  H  H993  1  0.42289000  0.68120000  0.16036000  1
  H  H994  1  0.35463000  0.60088000  0.02399000  1
  H  H995  1  0.42289000  0.58964000  0.06880000  1
  H  H996  1  0.37319000  0.55238000  0.08705000  1
  H  H997  1  0.47473000  0.59507000  0.10782000  1
  H  H998  1  0.37319000  0.66295000  0.19762000  1
  H  H999  1  0.47473000  0.64218000  0.15493000  1
  H  H1000  1  0.35088000  0.27399000  0.14537000  1
  H  H1001  1  0.33964000  0.31880000  0.07711000  1
  H  H1002  1  0.47601000  0.39912000  0.14537000  1
  H  H1003  1  0.43120000  0.41036000  0.07711000  1
  H  H1004  1  0.30238000  0.33705000  0.12681000  1
  H  H1005  1  0.34507000  0.35782000  0.02527000  1
  H  H1006  1  0.41295000  0.44762000  0.12681000  1
  H  H1007  1  0.39218000  0.40493000  0.02527000  1
  C  C1008  1  0.12013000  0.02680000  0.26607000  1
  C  C1009  1  0.11800000  0.00150000  0.29150000  1
  C  C1010  1  0.11030000  0.90630000  0.30160000  1
  C  C1011  1  0.11000000  0.88020000  0.32800000  1
  C  C1012  1  0.14060000  0.87430000  0.34800000  1
  C  C1013  1  0.17130000  0.89200000  0.34130000  1
  C  C1014  1  0.08150000  0.85870000  0.33470000  1
  C  C1015  1  0.04890000  0.86550000  0.31580000  1
  C  C1016  1  0.02110000  0.84660000  0.32180000  1
  C  C1017  1  0.12013000  0.52680000  0.76607000  1
  C  C1018  1  0.11800000  0.50150000  0.79150000  1
  C  C1019  1  0.11030000  0.40630000  0.80160000  1
  C  C1020  1  0.11000000  0.38020000  0.82800000  1
  C  C1021  1  0.14060000  0.37430000  0.84800000  1
  C  C1022  1  0.17130000  0.39200000  0.84130000  1
  C  C1023  1  0.08150000  0.35870000  0.83470000  1
  C  C1024  1  0.04890000  0.36550000  0.81580000  1
  C  C1025  1  0.02110000  0.34660000  0.82180000  1
  C  C1026  1  0.62013000  0.02680000  0.76607000  1
  C  C1027  1  0.61800000  0.00150000  0.79150000  1
  C  C1028  1  0.62013000  0.52680000  0.26607000  1
  C  C1029  1  0.61800000  0.50150000  0.29150000  1
  C  C1030  1  0.62987000  0.22320000  0.76607000  1
  C  C1031  1  0.63200000  0.24850000  0.79150000  1
  C  C1032  1  0.63970000  0.34370000  0.80160000  1
  C  C1033  1  0.64000000  0.36980000  0.82800000  1
  C  C1034  1  0.60940000  0.37570000  0.84800000  1
  C  C1035  1  0.57870000  0.35800000  0.84130000  1
  C  C1036  1  0.66850000  0.39130000  0.83470000  1
  C  C1037  1  0.70110000  0.38450000  0.81580000  1
  C  C1038  1  0.72890000  0.40340000  0.82180000  1
  C  C1039  1  0.62987000  0.72320000  0.26607000  1
  C  C1040  1  0.63200000  0.74850000  0.29150000  1
  C  C1041  1  0.63970000  0.84370000  0.30160000  1
  C  C1042  1  0.64000000  0.86980000  0.32800000  1
  C  C1043  1  0.60940000  0.87570000  0.34800000  1
  C  C1044  1  0.57870000  0.85800000  0.34130000  1
  C  C1045  1  0.66850000  0.89130000  0.33470000  1
  C  C1046  1  0.70110000  0.88450000  0.31580000  1
  C  C1047  1  0.72890000  0.90340000  0.32180000  1
  C  C1048  1  0.12987000  0.22320000  0.26607000  1
  C  C1049  1  0.13200000  0.24850000  0.29150000  1
  C  C1050  1  0.13970000  0.34370000  0.30160000  1
  C  C1051  1  0.14000000  0.36980000  0.32800000  1
  C  C1052  1  0.10940000  0.37570000  0.34800000  1
  C  C1053  1  0.07870000  0.35800000  0.34130000  1
  C  C1054  1  0.16850000  0.39130000  0.33470000  1
  C  C1055  1  0.20110000  0.38450000  0.31580000  1
  C  C1056  1  0.22890000  0.40340000  0.32180000  1
  C  C1057  1  0.12987000  0.72320000  0.76607000  1
  C  C1058  1  0.13200000  0.74850000  0.79150000  1
  C  C1059  1  0.13970000  0.84370000  0.80160000  1
  C  C1060  1  0.14000000  0.86980000  0.82800000  1
  C  C1061  1  0.10940000  0.87570000  0.84800000  1
  C  C1062  1  0.07870000  0.85800000  0.84130000  1
  C  C1063  1  0.16850000  0.89130000  0.83470000  1
  C  C1064  1  0.20110000  0.88450000  0.81580000  1
  C  C1065  1  0.22890000  0.90340000  0.82180000  1
  C  C1066  1  0.12987000  0.52680000  0.48393000  1
  C  C1067  1  0.13200000  0.50150000  0.45850000  1
  C  C1068  1  0.12987000  0.02680000  0.98393000  1
  C  C1069  1  0.13200000  0.00150000  0.95850000  1
  C  C1070  1  0.62987000  0.52680000  0.98393000  1
  C  C1071  1  0.63200000  0.50150000  0.95850000  1
  C  C1072  1  0.62987000  0.02680000  0.48393000  1
  C  C1073  1  0.63200000  0.00150000  0.45850000  1
  C  C1074  1  0.62013000  0.72320000  0.98393000  1
  C  C1075  1  0.61800000  0.74850000  0.95850000  1
  C  C1076  1  0.61030000  0.84370000  0.94840000  1
  C  C1077  1  0.61000000  0.86980000  0.92200000  1
  C  C1078  1  0.64060000  0.87570000  0.90200000  1
  C  C1079  1  0.67130000  0.85800000  0.90870000  1
  C  C1080  1  0.58150000  0.89130000  0.91530000  1
  C  C1081  1  0.54890000  0.88450000  0.93420000  1
  C  C1082  1  0.52110000  0.90340000  0.92820000  1
  C  C1083  1  0.62013000  0.22320000  0.48393000  1
  C  C1084  1  0.61800000  0.24850000  0.45850000  1
  C  C1085  1  0.61030000  0.34370000  0.44840000  1
  C  C1086  1  0.61000000  0.36980000  0.42200000  1
  C  C1087  1  0.64060000  0.37570000  0.40200000  1
  C  C1088  1  0.67130000  0.35800000  0.40870000  1
  C  C1089  1  0.58150000  0.39130000  0.41530000  1
  C  C1090  1  0.54890000  0.38450000  0.43420000  1
  C  C1091  1  0.52110000  0.40340000  0.42820000  1
  C  C1092  1  0.12013000  0.72320000  0.48393000  1
  C  C1093  1  0.11800000  0.74850000  0.45850000  1
  C  C1094  1  0.12013000  0.22320000  0.98393000  1
  C  C1095  1  0.11800000  0.24850000  0.95850000  1
  C  C1096  1  0.26607000  0.12013000  0.02680000  1
  C  C1097  1  0.29150000  0.11800000  0.00150000  1
  C  C1098  1  0.30160000  0.11030000  0.90630000  1
  C  C1099  1  0.32800000  0.11000000  0.88020000  1
  C  C1100  1  0.34800000  0.14060000  0.87430000  1
  C  C1101  1  0.34130000  0.17130000  0.89200000  1
  C  C1102  1  0.33470000  0.08150000  0.85870000  1
  C  C1103  1  0.31580000  0.04890000  0.86550000  1
  C  C1104  1  0.32180000  0.02110000  0.84660000  1
  C  C1105  1  0.26607000  0.62013000  0.52680000  1
  C  C1106  1  0.29150000  0.61800000  0.50150000  1
  C  C1107  1  0.76607000  0.12013000  0.52680000  1
  C  C1108  1  0.79150000  0.11800000  0.50150000  1
  C  C1109  1  0.80160000  0.11030000  0.40630000  1
  C  C1110  1  0.82800000  0.11000000  0.38020000  1
  C  C1111  1  0.84800000  0.14060000  0.37430000  1
  C  C1112  1  0.84130000  0.17130000  0.39200000  1
  C  C1113  1  0.83470000  0.08150000  0.35870000  1
  C  C1114  1  0.81580000  0.04890000  0.36550000  1
  C  C1115  1  0.82180000  0.02110000  0.34660000  1
  C  C1116  1  0.76607000  0.62013000  0.02680000  1
  C  C1117  1  0.79150000  0.61800000  0.00150000  1
  C  C1118  1  0.80160000  0.61030000  0.90630000  1
  C  C1119  1  0.82800000  0.61000000  0.88020000  1
  C  C1120  1  0.84800000  0.64060000  0.87430000  1
  C  C1121  1  0.84130000  0.67130000  0.89200000  1
  C  C1122  1  0.83470000  0.58150000  0.85870000  1
  C  C1123  1  0.81580000  0.54890000  0.86550000  1
  C  C1124  1  0.82180000  0.52110000  0.84660000  1
  C  C1125  1  0.76607000  0.62987000  0.22320000  1
  C  C1126  1  0.79150000  0.63200000  0.24850000  1
  C  C1127  1  0.76607000  0.12987000  0.72320000  1
  C  C1128  1  0.79150000  0.13200000  0.74850000  1
  C  C1129  1  0.26607000  0.62987000  0.72320000  1
  C  C1130  1  0.29150000  0.63200000  0.74850000  1
  C  C1131  1  0.30160000  0.63970000  0.84370000  1
  C  C1132  1  0.32800000  0.64000000  0.86980000  1
  C  C1133  1  0.34800000  0.60940000  0.87570000  1
  C  C1134  1  0.34130000  0.57870000  0.85800000  1
  C  C1135  1  0.33470000  0.66850000  0.89130000  1
  C  C1136  1  0.31580000  0.70110000  0.88450000  1
  C  C1137  1  0.32180000  0.72890000  0.90340000  1
  C  C1138  1  0.26607000  0.12987000  0.22320000  1
  C  C1139  1  0.29150000  0.13200000  0.24850000  1
  C  C1140  1  0.48393000  0.12987000  0.52680000  1
  C  C1141  1  0.45850000  0.13200000  0.50150000  1
  C  C1142  1  0.44840000  0.13970000  0.40630000  1
  C  C1143  1  0.42200000  0.14000000  0.38020000  1
  C  C1144  1  0.40200000  0.10940000  0.37430000  1
  C  C1145  1  0.40870000  0.07870000  0.39200000  1
  C  C1146  1  0.41530000  0.16850000  0.35870000  1
  C  C1147  1  0.43420000  0.20110000  0.36550000  1
  C  C1148  1  0.42820000  0.22890000  0.34660000  1
  C  C1149  1  0.48393000  0.62987000  0.02680000  1
  C  C1150  1  0.45850000  0.63200000  0.00150000  1
  C  C1151  1  0.98393000  0.12987000  0.02680000  1
  C  C1152  1  0.95850000  0.13200000  0.00150000  1
  C  C1153  1  0.94840000  0.13970000  0.90630000  1
  C  C1154  1  0.92200000  0.14000000  0.88020000  1
  C  C1155  1  0.90200000  0.10940000  0.87430000  1
  C  C1156  1  0.90870000  0.07870000  0.89200000  1
  C  C1157  1  0.91530000  0.16850000  0.85870000  1
  C  C1158  1  0.93420000  0.20110000  0.86550000  1
  C  C1159  1  0.92820000  0.22890000  0.84660000  1
  C  C1160  1  0.98393000  0.62987000  0.52680000  1
  C  C1161  1  0.95850000  0.63200000  0.50150000  1
  C  C1162  1  0.94840000  0.63970000  0.40630000  1
  C  C1163  1  0.92200000  0.64000000  0.38020000  1
  C  C1164  1  0.90200000  0.60940000  0.37430000  1
  C  C1165  1  0.90870000  0.57870000  0.39200000  1
  C  C1166  1  0.91530000  0.66850000  0.35870000  1
  C  C1167  1  0.93420000  0.70110000  0.36550000  1
  C  C1168  1  0.92820000  0.72890000  0.34660000  1
  C  C1169  1  0.98393000  0.62013000  0.72320000  1
  C  C1170  1  0.95850000  0.61800000  0.74850000  1
  C  C1171  1  0.98393000  0.12013000  0.22320000  1
  C  C1172  1  0.95850000  0.11800000  0.24850000  1
  C  C1173  1  0.48393000  0.62013000  0.22320000  1
  C  C1174  1  0.45850000  0.61800000  0.24850000  1
  C  C1175  1  0.44840000  0.61030000  0.34370000  1
  C  C1176  1  0.42200000  0.61000000  0.36980000  1
  C  C1177  1  0.40200000  0.64060000  0.37570000  1
  C  C1178  1  0.40870000  0.67130000  0.35800000  1
  C  C1179  1  0.41530000  0.58150000  0.39130000  1
  C  C1180  1  0.43420000  0.54890000  0.38450000  1
  C  C1181  1  0.42820000  0.52110000  0.40340000  1
  C  C1182  1  0.48393000  0.12013000  0.72320000  1
  C  C1183  1  0.45850000  0.11800000  0.74850000  1
  C  C1184  1  0.02680000  0.26607000  0.12013000  1
  C  C1185  1  0.00150000  0.29150000  0.11800000  1
  C  C1186  1  0.90630000  0.30160000  0.11030000  1
  C  C1187  1  0.88020000  0.32800000  0.11000000  1
  C  C1188  1  0.87430000  0.34800000  0.14060000  1
  C  C1189  1  0.89200000  0.34130000  0.17130000  1
  C  C1190  1  0.85870000  0.33470000  0.08150000  1
  C  C1191  1  0.86550000  0.31580000  0.04890000  1
  C  C1192  1  0.84660000  0.32180000  0.02110000  1
  C  C1193  1  0.02680000  0.76607000  0.62013000  1
  C  C1194  1  0.00150000  0.79150000  0.61800000  1
  C  C1195  1  0.52680000  0.26607000  0.62013000  1
  C  C1196  1  0.50150000  0.29150000  0.61800000  1
  C  C1197  1  0.52680000  0.76607000  0.12013000  1
  C  C1198  1  0.50150000  0.79150000  0.11800000  1
  C  C1199  1  0.22320000  0.76607000  0.62987000  1
  C  C1200  1  0.24850000  0.79150000  0.63200000  1
  C  C1201  1  0.22320000  0.26607000  0.12987000  1
  C  C1202  1  0.24850000  0.29150000  0.13200000  1
  C  C1203  1  0.34370000  0.30160000  0.13970000  1
  C  C1204  1  0.36980000  0.32800000  0.14000000  1
  C  C1205  1  0.37570000  0.34800000  0.10940000  1
  C  C1206  1  0.35800000  0.34130000  0.07870000  1
  C  C1207  1  0.39130000  0.33470000  0.16850000  1
  C  C1208  1  0.38450000  0.31580000  0.20110000  1
  C  C1209  1  0.40340000  0.32180000  0.22890000  1
  C  C1210  1  0.72320000  0.76607000  0.12987000  1
  C  C1211  1  0.74850000  0.79150000  0.13200000  1
  C  C1212  1  0.84370000  0.80160000  0.13970000  1
  C  C1213  1  0.86980000  0.82800000  0.14000000  1
  C  C1214  1  0.87570000  0.84800000  0.10940000  1
  C  C1215  1  0.85800000  0.84130000  0.07870000  1
  C  C1216  1  0.89130000  0.83470000  0.16850000  1
  C  C1217  1  0.88450000  0.81580000  0.20110000  1
  C  C1218  1  0.90340000  0.82180000  0.22890000  1
  C  C1219  1  0.72320000  0.26607000  0.62987000  1
  C  C1220  1  0.74850000  0.29150000  0.63200000  1
  C  C1221  1  0.84370000  0.30160000  0.63970000  1
  C  C1222  1  0.86980000  0.32800000  0.64000000  1
  C  C1223  1  0.87570000  0.34800000  0.60940000  1
  C  C1224  1  0.85800000  0.34130000  0.57870000  1
  C  C1225  1  0.89130000  0.33470000  0.66850000  1
  C  C1226  1  0.88450000  0.31580000  0.70110000  1
  C  C1227  1  0.90340000  0.32180000  0.72890000  1
  C  C1228  1  0.52680000  0.48393000  0.12987000  1
  C  C1229  1  0.50150000  0.45850000  0.13200000  1
  C  C1230  1  0.52680000  0.98393000  0.62987000  1
  C  C1231  1  0.50150000  0.95850000  0.63200000  1
  C  C1232  1  0.40630000  0.94840000  0.63970000  1
  C  C1233  1  0.38020000  0.92200000  0.64000000  1
  C  C1234  1  0.37430000  0.90200000  0.60940000  1
  C  C1235  1  0.39200000  0.90870000  0.57870000  1
  C  C1236  1  0.35870000  0.91530000  0.66850000  1
  C  C1237  1  0.36550000  0.93420000  0.70110000  1
  C  C1238  1  0.34660000  0.92820000  0.72890000  1
  C  C1239  1  0.02680000  0.48393000  0.62987000  1
  C  C1240  1  0.00150000  0.45850000  0.63200000  1
  C  C1241  1  0.02680000  0.98393000  0.12987000  1
  C  C1242  1  0.00150000  0.95850000  0.13200000  1
  C  C1243  1  0.72320000  0.98393000  0.62013000  1
  C  C1244  1  0.74850000  0.95850000  0.61800000  1
  C  C1245  1  0.84370000  0.94840000  0.61030000  1
  C  C1246  1  0.86980000  0.92200000  0.61000000  1
  C  C1247  1  0.87570000  0.90200000  0.64060000  1
  C  C1248  1  0.85800000  0.90870000  0.67130000  1
  C  C1249  1  0.89130000  0.91530000  0.58150000  1
  C  C1250  1  0.88450000  0.93420000  0.54890000  1
  C  C1251  1  0.90340000  0.92820000  0.52110000  1
  C  C1252  1  0.72320000  0.48393000  0.12013000  1
  C  C1253  1  0.74850000  0.45850000  0.11800000  1
  C  C1254  1  0.22320000  0.98393000  0.12013000  1
  C  C1255  1  0.24850000  0.95850000  0.11800000  1
  C  C1256  1  0.34370000  0.94840000  0.11030000  1
  C  C1257  1  0.36980000  0.92200000  0.11000000  1
  C  C1258  1  0.37570000  0.90200000  0.14060000  1
  C  C1259  1  0.35800000  0.90870000  0.17130000  1
  C  C1260  1  0.39130000  0.91530000  0.08150000  1
  C  C1261  1  0.38450000  0.93420000  0.04890000  1
  C  C1262  1  0.40340000  0.92820000  0.02110000  1
  C  C1263  1  0.22320000  0.48393000  0.62013000  1
  C  C1264  1  0.24850000  0.45850000  0.61800000  1
  C  C1265  1  0.34370000  0.44840000  0.61030000  1
  C  C1266  1  0.36980000  0.42200000  0.61000000  1
  C  C1267  1  0.37570000  0.40200000  0.64060000  1
  C  C1268  1  0.35800000  0.40870000  0.67130000  1
  C  C1269  1  0.39130000  0.41530000  0.58150000  1
  C  C1270  1  0.38450000  0.43420000  0.54890000  1
  C  C1271  1  0.40340000  0.42820000  0.52110000  1
  C  C1272  1  0.77680000  0.37013000  0.23393000  1
  C  C1273  1  0.75150000  0.36800000  0.20850000  1
  C  C1274  1  0.77680000  0.87013000  0.73393000  1
  C  C1275  1  0.75150000  0.86800000  0.70850000  1
  C  C1276  1  0.27680000  0.37013000  0.73393000  1
  C  C1277  1  0.25150000  0.36800000  0.70850000  1
  C  C1278  1  0.15630000  0.36030000  0.69840000  1
  C  C1279  1  0.13020000  0.36000000  0.67200000  1
  C  C1280  1  0.12430000  0.39060000  0.65200000  1
  C  C1281  1  0.14200000  0.42130000  0.65870000  1
  C  C1282  1  0.10870000  0.33150000  0.66530000  1
  C  C1283  1  0.11550000  0.29890000  0.68420000  1
  C  C1284  1  0.09660000  0.27110000  0.67820000  1
  C  C1285  1  0.27680000  0.87013000  0.23393000  1
  C  C1286  1  0.25150000  0.86800000  0.20850000  1
  C  C1287  1  0.15630000  0.86030000  0.19840000  1
  C  C1288  1  0.13020000  0.86000000  0.17200000  1
  C  C1289  1  0.12430000  0.89060000  0.15200000  1
  C  C1290  1  0.14200000  0.92130000  0.15870000  1
  C  C1291  1  0.10870000  0.83150000  0.16530000  1
  C  C1292  1  0.11550000  0.79890000  0.18420000  1
  C  C1293  1  0.09660000  0.77110000  0.17820000  1
  C  C1294  1  0.97320000  0.87987000  0.73393000  1
  C  C1295  1  0.99850000  0.88200000  0.70850000  1
  C  C1296  1  0.09370000  0.88970000  0.69840000  1
  C  C1297  1  0.11980000  0.89000000  0.67200000  1
  C  C1298  1  0.12570000  0.85940000  0.65200000  1
  C  C1299  1  0.10800000  0.82870000  0.65870000  1
  C  C1300  1  0.14130000  0.91850000  0.66530000  1
  C  C1301  1  0.13450000  0.95110000  0.68420000  1
  C  C1302  1  0.15340000  0.97890000  0.67820000  1
  C  C1303  1  0.97320000  0.37987000  0.23393000  1
  C  C1304  1  0.99850000  0.38200000  0.20850000  1
  C  C1305  1  0.09370000  0.38970000  0.19840000  1
  C  C1306  1  0.11980000  0.39000000  0.17200000  1
  C  C1307  1  0.12570000  0.35940000  0.15200000  1
  C  C1308  1  0.10800000  0.32870000  0.15870000  1
  C  C1309  1  0.14130000  0.41850000  0.16530000  1
  C  C1310  1  0.13450000  0.45110000  0.18420000  1
  C  C1311  1  0.15340000  0.47890000  0.17820000  1
  C  C1312  1  0.47320000  0.87987000  0.23393000  1
  C  C1313  1  0.49850000  0.88200000  0.20850000  1
  C  C1314  1  0.47320000  0.37987000  0.73393000  1
  C  C1315  1  0.49850000  0.38200000  0.70850000  1
  C  C1316  1  0.27680000  0.37987000  0.01607000  1
  C  C1317  1  0.25150000  0.38200000  0.04150000  1
  C  C1318  1  0.27680000  0.87987000  0.51607000  1
  C  C1319  1  0.25150000  0.88200000  0.54150000  1
  C  C1320  1  0.77680000  0.37987000  0.51607000  1
  C  C1321  1  0.75150000  0.38200000  0.54150000  1
  C  C1322  1  0.65630000  0.38970000  0.55160000  1
  C  C1323  1  0.63020000  0.39000000  0.57800000  1
  C  C1324  1  0.62430000  0.35940000  0.59800000  1
  C  C1325  1  0.64200000  0.32870000  0.59130000  1
  C  C1326  1  0.60870000  0.41850000  0.58470000  1
  C  C1327  1  0.61550000  0.45110000  0.56580000  1
  C  C1328  1  0.59660000  0.47890000  0.57180000  1
  C  C1329  1  0.77680000  0.87987000  0.01607000  1
  C  C1330  1  0.75150000  0.88200000  0.04150000  1
  C  C1331  1  0.65630000  0.88970000  0.05160000  1
  C  C1332  1  0.63020000  0.89000000  0.07800000  1
  C  C1333  1  0.62430000  0.85940000  0.09800000  1
  C  C1334  1  0.64200000  0.82870000  0.09130000  1
  C  C1335  1  0.60870000  0.91850000  0.08470000  1
  C  C1336  1  0.61550000  0.95110000  0.06580000  1
  C  C1337  1  0.59660000  0.97890000  0.07180000  1
  C  C1338  1  0.47320000  0.87013000  0.51607000  1
  C  C1339  1  0.49850000  0.86800000  0.54150000  1
  C  C1340  1  0.59370000  0.86030000  0.55160000  1
  C  C1341  1  0.61980000  0.86000000  0.57800000  1
  C  C1342  1  0.62570000  0.89060000  0.59800000  1
  C  C1343  1  0.60800000  0.92130000  0.59130000  1
  C  C1344  1  0.64130000  0.83150000  0.58470000  1
  C  C1345  1  0.63450000  0.79890000  0.56580000  1
  C  C1346  1  0.65340000  0.77110000  0.57180000  1
  C  C1347  1  0.47320000  0.37013000  0.01607000  1
  C  C1348  1  0.49850000  0.36800000  0.04150000  1
  C  C1349  1  0.59370000  0.36030000  0.05160000  1
  C  C1350  1  0.61980000  0.36000000  0.07800000  1
  C  C1351  1  0.62570000  0.39060000  0.09800000  1
  C  C1352  1  0.60800000  0.42130000  0.09130000  1
  C  C1353  1  0.64130000  0.33150000  0.08470000  1
  C  C1354  1  0.63450000  0.29890000  0.06580000  1
  C  C1355  1  0.65340000  0.27110000  0.07180000  1
  C  C1356  1  0.97320000  0.87013000  0.01607000  1
  C  C1357  1  0.99850000  0.86800000  0.04150000  1
  C  C1358  1  0.97320000  0.37013000  0.51607000  1
  C  C1359  1  0.99850000  0.36800000  0.54150000  1
  C  C1360  1  0.87013000  0.51607000  0.47320000  1
  C  C1361  1  0.86800000  0.54150000  0.49850000  1
  C  C1362  1  0.87013000  0.01607000  0.97320000  1
  C  C1363  1  0.86800000  0.04150000  0.99850000  1
  C  C1364  1  0.86030000  0.05160000  0.09370000  1
  C  C1365  1  0.86000000  0.07800000  0.11980000  1
  C  C1366  1  0.89060000  0.09800000  0.12570000  1
  C  C1367  1  0.92130000  0.09130000  0.10800000  1
  C  C1368  1  0.83150000  0.08470000  0.14130000  1
  C  C1369  1  0.79890000  0.06580000  0.13450000  1
  C  C1370  1  0.77110000  0.07180000  0.15340000  1
  C  C1371  1  0.37013000  0.51607000  0.97320000  1
  C  C1372  1  0.36800000  0.54150000  0.99850000  1
  C  C1373  1  0.37013000  0.01607000  0.47320000  1
  C  C1374  1  0.36800000  0.04150000  0.49850000  1
  C  C1375  1  0.36030000  0.05160000  0.59370000  1
  C  C1376  1  0.36000000  0.07800000  0.61980000  1
  C  C1377  1  0.39060000  0.09800000  0.62570000  1
  C  C1378  1  0.42130000  0.09130000  0.60800000  1
  C  C1379  1  0.33150000  0.08470000  0.64130000  1
  C  C1380  1  0.29890000  0.06580000  0.63450000  1
  C  C1381  1  0.27110000  0.07180000  0.65340000  1
  C  C1382  1  0.37987000  0.01607000  0.27680000  1
  C  C1383  1  0.38200000  0.04150000  0.25150000  1
  C  C1384  1  0.37987000  0.51607000  0.77680000  1
  C  C1385  1  0.38200000  0.54150000  0.75150000  1
  C  C1386  1  0.87987000  0.01607000  0.77680000  1
  C  C1387  1  0.88200000  0.04150000  0.75150000  1
  C  C1388  1  0.88970000  0.05160000  0.65630000  1
  C  C1389  1  0.89000000  0.07800000  0.63020000  1
  C  C1390  1  0.85940000  0.09800000  0.62430000  1
  C  C1391  1  0.82870000  0.09130000  0.64200000  1
  C  C1392  1  0.91850000  0.08470000  0.60870000  1
  C  C1393  1  0.95110000  0.06580000  0.61550000  1
  C  C1394  1  0.97890000  0.07180000  0.59660000  1
  C  C1395  1  0.87987000  0.51607000  0.27680000  1
  C  C1396  1  0.88200000  0.54150000  0.25150000  1
  C  C1397  1  0.88970000  0.55160000  0.15630000  1
  C  C1398  1  0.89000000  0.57800000  0.13020000  1
  C  C1399  1  0.85940000  0.59800000  0.12430000  1
  C  C1400  1  0.82870000  0.59130000  0.14200000  1
  C  C1401  1  0.91850000  0.58470000  0.10870000  1
  C  C1402  1  0.95110000  0.56580000  0.11550000  1
  C  C1403  1  0.97890000  0.57180000  0.09660000  1
  C  C1404  1  0.87987000  0.73393000  0.97320000  1
  C  C1405  1  0.88200000  0.70850000  0.99850000  1
  C  C1406  1  0.87987000  0.23393000  0.47320000  1
  C  C1407  1  0.88200000  0.20850000  0.49850000  1
  C  C1408  1  0.37987000  0.73393000  0.47320000  1
  C  C1409  1  0.38200000  0.70850000  0.49850000  1
  C  C1410  1  0.38970000  0.69840000  0.59370000  1
  C  C1411  1  0.39000000  0.67200000  0.61980000  1
  C  C1412  1  0.35940000  0.65200000  0.62570000  1
  C  C1413  1  0.32870000  0.65870000  0.60800000  1
  C  C1414  1  0.41850000  0.66530000  0.64130000  1
  C  C1415  1  0.45110000  0.68420000  0.63450000  1
  C  C1416  1  0.47890000  0.67820000  0.65340000  1
  C  C1417  1  0.37987000  0.23393000  0.97320000  1
  C  C1418  1  0.38200000  0.20850000  0.99850000  1
  C  C1419  1  0.38970000  0.19840000  0.09370000  1
  C  C1420  1  0.39000000  0.17200000  0.11980000  1
  C  C1421  1  0.35940000  0.15200000  0.12570000  1
  C  C1422  1  0.32870000  0.15870000  0.10800000  1
  C  C1423  1  0.41850000  0.16530000  0.14130000  1
  C  C1424  1  0.45110000  0.18420000  0.13450000  1
  C  C1425  1  0.47890000  0.17820000  0.15340000  1
  C  C1426  1  0.37013000  0.23393000  0.77680000  1
  C  C1427  1  0.36800000  0.20850000  0.75150000  1
  C  C1428  1  0.37013000  0.73393000  0.27680000  1
  C  C1429  1  0.36800000  0.70850000  0.25150000  1
  C  C1430  1  0.36030000  0.69840000  0.15630000  1
  C  C1431  1  0.36000000  0.67200000  0.13020000  1
  C  C1432  1  0.39060000  0.65200000  0.12430000  1
  C  C1433  1  0.42130000  0.65870000  0.14200000  1
  C  C1434  1  0.33150000  0.66530000  0.10870000  1
  C  C1435  1  0.29890000  0.68420000  0.11550000  1
  C  C1436  1  0.27110000  0.67820000  0.09660000  1
  C  C1437  1  0.87013000  0.23393000  0.27680000  1
  C  C1438  1  0.86800000  0.20850000  0.25150000  1
  C  C1439  1  0.87013000  0.73393000  0.77680000  1
  C  C1440  1  0.86800000  0.70850000  0.75150000  1
  C  C1441  1  0.86030000  0.69840000  0.65630000  1
  C  C1442  1  0.86000000  0.67200000  0.63020000  1
  C  C1443  1  0.89060000  0.65200000  0.62430000  1
  C  C1444  1  0.92130000  0.65870000  0.64200000  1
  C  C1445  1  0.83150000  0.66530000  0.60870000  1
  C  C1446  1  0.79890000  0.68420000  0.61550000  1
  C  C1447  1  0.77110000  0.67820000  0.59660000  1
  C  C1448  1  0.01607000  0.27680000  0.37987000  1
  C  C1449  1  0.04150000  0.25150000  0.38200000  1
  C  C1450  1  0.05160000  0.15630000  0.38970000  1
  C  C1451  1  0.07800000  0.13020000  0.39000000  1
  C  C1452  1  0.09800000  0.12430000  0.35940000  1
  C  C1453  1  0.09130000  0.14200000  0.32870000  1
  C  C1454  1  0.08470000  0.10870000  0.41850000  1
  C  C1455  1  0.06580000  0.11550000  0.45110000  1
  C  C1456  1  0.07180000  0.09660000  0.47890000  1
  C  C1457  1  0.01607000  0.77680000  0.87987000  1
  C  C1458  1  0.04150000  0.75150000  0.88200000  1
  C  C1459  1  0.05160000  0.65630000  0.88970000  1
  C  C1460  1  0.07800000  0.63020000  0.89000000  1
  C  C1461  1  0.09800000  0.62430000  0.85940000  1
  C  C1462  1  0.09130000  0.64200000  0.82870000  1
  C  C1463  1  0.08470000  0.60870000  0.91850000  1
  C  C1464  1  0.06580000  0.61550000  0.95110000  1
  C  C1465  1  0.07180000  0.59660000  0.97890000  1
  C  C1466  1  0.51607000  0.27680000  0.87987000  1
  C  C1467  1  0.54150000  0.25150000  0.88200000  1
  C  C1468  1  0.55160000  0.15630000  0.88970000  1
  C  C1469  1  0.57800000  0.13020000  0.89000000  1
  C  C1470  1  0.59800000  0.12430000  0.85940000  1
  C  C1471  1  0.59130000  0.14200000  0.82870000  1
  C  C1472  1  0.58470000  0.10870000  0.91850000  1
  C  C1473  1  0.56580000  0.11550000  0.95110000  1
  C  C1474  1  0.57180000  0.09660000  0.97890000  1
  C  C1475  1  0.51607000  0.77680000  0.37987000  1
  C  C1476  1  0.54150000  0.75150000  0.38200000  1
  C  C1477  1  0.55160000  0.65630000  0.38970000  1
  C  C1478  1  0.57800000  0.63020000  0.39000000  1
  C  C1479  1  0.59800000  0.62430000  0.35940000  1
  C  C1480  1  0.59130000  0.64200000  0.32870000  1
  C  C1481  1  0.58470000  0.60870000  0.41850000  1
  C  C1482  1  0.56580000  0.61550000  0.45110000  1
  C  C1483  1  0.57180000  0.59660000  0.47890000  1
  C  C1484  1  0.51607000  0.47320000  0.87013000  1
  C  C1485  1  0.54150000  0.49850000  0.86800000  1
  C  C1486  1  0.51607000  0.97320000  0.37013000  1
  C  C1487  1  0.54150000  0.99850000  0.36800000  1
  C  C1488  1  0.01607000  0.47320000  0.37013000  1
  C  C1489  1  0.04150000  0.49850000  0.36800000  1
  C  C1490  1  0.01607000  0.97320000  0.87013000  1
  C  C1491  1  0.04150000  0.99850000  0.86800000  1
  C  C1492  1  0.23393000  0.77680000  0.37013000  1
  C  C1493  1  0.20850000  0.75150000  0.36800000  1
  C  C1494  1  0.19840000  0.65630000  0.36030000  1
  C  C1495  1  0.17200000  0.63020000  0.36000000  1
  C  C1496  1  0.15200000  0.62430000  0.39060000  1
  C  C1497  1  0.15870000  0.64200000  0.42130000  1
  C  C1498  1  0.16530000  0.60870000  0.33150000  1
  C  C1499  1  0.18420000  0.61550000  0.29890000  1
  C  C1500  1  0.17820000  0.59660000  0.27110000  1
  C  C1501  1  0.23393000  0.27680000  0.87013000  1
  C  C1502  1  0.20850000  0.25150000  0.86800000  1
  C  C1503  1  0.19840000  0.15630000  0.86030000  1
  C  C1504  1  0.17200000  0.13020000  0.86000000  1
  C  C1505  1  0.15200000  0.12430000  0.89060000  1
  C  C1506  1  0.15870000  0.14200000  0.92130000  1
  C  C1507  1  0.16530000  0.10870000  0.83150000  1
  C  C1508  1  0.18420000  0.11550000  0.79890000  1
  C  C1509  1  0.17820000  0.09660000  0.77110000  1
  C  C1510  1  0.73393000  0.77680000  0.87013000  1
  C  C1511  1  0.70850000  0.75150000  0.86800000  1
  C  C1512  1  0.69840000  0.65630000  0.86030000  1
  C  C1513  1  0.67200000  0.63020000  0.86000000  1
  C  C1514  1  0.65200000  0.62430000  0.89060000  1
  C  C1515  1  0.65870000  0.64200000  0.92130000  1
  C  C1516  1  0.66530000  0.60870000  0.83150000  1
  C  C1517  1  0.68420000  0.61550000  0.79890000  1
  C  C1518  1  0.67820000  0.59660000  0.77110000  1
  C  C1519  1  0.73393000  0.27680000  0.37013000  1
  C  C1520  1  0.70850000  0.25150000  0.36800000  1
  C  C1521  1  0.69840000  0.15630000  0.36030000  1
  C  C1522  1  0.67200000  0.13020000  0.36000000  1
  C  C1523  1  0.65200000  0.12430000  0.39060000  1
  C  C1524  1  0.65870000  0.14200000  0.42130000  1
  C  C1525  1  0.66530000  0.10870000  0.33150000  1
  C  C1526  1  0.68420000  0.11550000  0.29890000  1
  C  C1527  1  0.67820000  0.09660000  0.27110000  1
  C  C1528  1  0.73393000  0.97320000  0.87987000  1
  C  C1529  1  0.70850000  0.99850000  0.88200000  1
  C  C1530  1  0.73393000  0.47320000  0.37987000  1
  C  C1531  1  0.70850000  0.49850000  0.38200000  1
  C  C1532  1  0.23393000  0.97320000  0.37987000  1
  C  C1533  1  0.20850000  0.99850000  0.38200000  1
  C  C1534  1  0.23393000  0.47320000  0.87987000  1
  C  C1535  1  0.20850000  0.49850000  0.88200000  1
  C  C1536  1  0.87987000  0.97320000  0.73393000  1
  C  C1537  1  0.88200000  0.99850000  0.70850000  1
  C  C1538  1  0.87987000  0.47320000  0.23393000  1
  C  C1539  1  0.88200000  0.49850000  0.20850000  1
  C  C1540  1  0.37987000  0.97320000  0.23393000  1
  C  C1541  1  0.38200000  0.99850000  0.20850000  1
  C  C1542  1  0.38970000  0.09370000  0.19840000  1
  C  C1543  1  0.39000000  0.11980000  0.17200000  1
  C  C1544  1  0.35940000  0.12570000  0.15200000  1
  C  C1545  1  0.32870000  0.10800000  0.15870000  1
  C  C1546  1  0.41850000  0.14130000  0.16530000  1
  C  C1547  1  0.45110000  0.13450000  0.18420000  1
  C  C1548  1  0.47890000  0.15340000  0.17820000  1
  C  C1549  1  0.37987000  0.47320000  0.73393000  1
  C  C1550  1  0.38200000  0.49850000  0.70850000  1
  C  C1551  1  0.38970000  0.59370000  0.69840000  1
  C  C1552  1  0.39000000  0.61980000  0.67200000  1
  C  C1553  1  0.35940000  0.62570000  0.65200000  1
  C  C1554  1  0.32870000  0.60800000  0.65870000  1
  C  C1555  1  0.41850000  0.64130000  0.66530000  1
  C  C1556  1  0.45110000  0.63450000  0.68420000  1
  C  C1557  1  0.47890000  0.65340000  0.67820000  1
  C  C1558  1  0.37013000  0.77680000  0.23393000  1
  C  C1559  1  0.36800000  0.75150000  0.20850000  1
  C  C1560  1  0.37013000  0.27680000  0.73393000  1
  C  C1561  1  0.36800000  0.25150000  0.70850000  1
  C  C1562  1  0.36030000  0.15630000  0.69840000  1
  C  C1563  1  0.36000000  0.13020000  0.67200000  1
  C  C1564  1  0.39060000  0.12430000  0.65200000  1
  C  C1565  1  0.42130000  0.14200000  0.65870000  1
  C  C1566  1  0.33150000  0.10870000  0.66530000  1
  C  C1567  1  0.29890000  0.11550000  0.68420000  1
  C  C1568  1  0.27110000  0.09660000  0.67820000  1
  C  C1569  1  0.87013000  0.77680000  0.73393000  1
  C  C1570  1  0.86800000  0.75150000  0.70850000  1
  C  C1571  1  0.87013000  0.27680000  0.23393000  1
  C  C1572  1  0.86800000  0.25150000  0.20850000  1
  C  C1573  1  0.86030000  0.15630000  0.19840000  1
  C  C1574  1  0.86000000  0.13020000  0.17200000  1
  C  C1575  1  0.89060000  0.12430000  0.15200000  1
  C  C1576  1  0.92130000  0.14200000  0.15870000  1
  C  C1577  1  0.83150000  0.10870000  0.16530000  1
  C  C1578  1  0.79890000  0.11550000  0.18420000  1
  C  C1579  1  0.77110000  0.09660000  0.17820000  1
  C  C1580  1  0.87013000  0.47320000  0.51607000  1
  C  C1581  1  0.86800000  0.49850000  0.54150000  1
  C  C1582  1  0.86030000  0.59370000  0.55160000  1
  C  C1583  1  0.86000000  0.61980000  0.57800000  1
  C  C1584  1  0.89060000  0.62570000  0.59800000  1
  C  C1585  1  0.92130000  0.60800000  0.59130000  1
  C  C1586  1  0.83150000  0.64130000  0.58470000  1
  C  C1587  1  0.79890000  0.63450000  0.56580000  1
  C  C1588  1  0.77110000  0.65340000  0.57180000  1
  C  C1589  1  0.87013000  0.97320000  0.01607000  1
  C  C1590  1  0.86800000  0.99850000  0.04150000  1
  C  C1591  1  0.37013000  0.47320000  0.01607000  1
  C  C1592  1  0.36800000  0.49850000  0.04150000  1
  C  C1593  1  0.36030000  0.59370000  0.05160000  1
  C  C1594  1  0.36000000  0.61980000  0.07800000  1
  C  C1595  1  0.39060000  0.62570000  0.09800000  1
  C  C1596  1  0.42130000  0.60800000  0.09130000  1
  C  C1597  1  0.33150000  0.64130000  0.08470000  1
  C  C1598  1  0.29890000  0.63450000  0.06580000  1
  C  C1599  1  0.27110000  0.65340000  0.07180000  1
  C  C1600  1  0.37013000  0.97320000  0.51607000  1
  C  C1601  1  0.36800000  0.99850000  0.54150000  1
  C  C1602  1  0.37987000  0.27680000  0.01607000  1
  C  C1603  1  0.38200000  0.25150000  0.04150000  1
  C  C1604  1  0.37987000  0.77680000  0.51607000  1
  C  C1605  1  0.38200000  0.75150000  0.54150000  1
  C  C1606  1  0.87987000  0.27680000  0.51607000  1
  C  C1607  1  0.88200000  0.25150000  0.54150000  1
  C  C1608  1  0.88970000  0.15630000  0.55160000  1
  C  C1609  1  0.89000000  0.13020000  0.57800000  1
  C  C1610  1  0.85940000  0.12430000  0.59800000  1
  C  C1611  1  0.82870000  0.14200000  0.59130000  1
  C  C1612  1  0.91850000  0.10870000  0.58470000  1
  C  C1613  1  0.95110000  0.11550000  0.56580000  1
  C  C1614  1  0.97890000  0.09660000  0.57180000  1
  C  C1615  1  0.87987000  0.77680000  0.01607000  1
  C  C1616  1  0.88200000  0.75150000  0.04150000  1
  C  C1617  1  0.88970000  0.65630000  0.05160000  1
  C  C1618  1  0.89000000  0.63020000  0.07800000  1
  C  C1619  1  0.85940000  0.62430000  0.09800000  1
  C  C1620  1  0.82870000  0.64200000  0.09130000  1
  C  C1621  1  0.91850000  0.60870000  0.08470000  1
  C  C1622  1  0.95110000  0.61550000  0.06580000  1
  C  C1623  1  0.97890000  0.59660000  0.07180000  1
  C  C1624  1  0.73393000  0.87987000  0.97320000  1
  C  C1625  1  0.70850000  0.88200000  0.99850000  1
  C  C1626  1  0.73393000  0.37987000  0.47320000  1
  C  C1627  1  0.70850000  0.38200000  0.49850000  1
  C  C1628  1  0.23393000  0.87987000  0.47320000  1
  C  C1629  1  0.20850000  0.88200000  0.49850000  1
  C  C1630  1  0.19840000  0.88970000  0.59370000  1
  C  C1631  1  0.17200000  0.89000000  0.61980000  1
  C  C1632  1  0.15200000  0.85940000  0.62570000  1
  C  C1633  1  0.15870000  0.82870000  0.60800000  1
  C  C1634  1  0.16530000  0.91850000  0.64130000  1
  C  C1635  1  0.18420000  0.95110000  0.63450000  1
  C  C1636  1  0.17820000  0.97890000  0.65340000  1
  C  C1637  1  0.23393000  0.37987000  0.97320000  1
  C  C1638  1  0.20850000  0.38200000  0.99850000  1
  C  C1639  1  0.19840000  0.38970000  0.09370000  1
  C  C1640  1  0.17200000  0.39000000  0.11980000  1
  C  C1641  1  0.15200000  0.35940000  0.12570000  1
  C  C1642  1  0.15870000  0.32870000  0.10800000  1
  C  C1643  1  0.16530000  0.41850000  0.14130000  1
  C  C1644  1  0.18420000  0.45110000  0.13450000  1
  C  C1645  1  0.17820000  0.47890000  0.15340000  1
  C  C1646  1  0.23393000  0.37013000  0.77680000  1
  C  C1647  1  0.20850000  0.36800000  0.75150000  1
  C  C1648  1  0.23393000  0.87013000  0.27680000  1
  C  C1649  1  0.20850000  0.86800000  0.25150000  1
  C  C1650  1  0.73393000  0.37013000  0.27680000  1
  C  C1651  1  0.70850000  0.36800000  0.25150000  1
  C  C1652  1  0.69840000  0.36030000  0.15630000  1
  C  C1653  1  0.67200000  0.36000000  0.13020000  1
  C  C1654  1  0.65200000  0.39060000  0.12430000  1
  C  C1655  1  0.65870000  0.42130000  0.14200000  1
  C  C1656  1  0.66530000  0.33150000  0.10870000  1
  C  C1657  1  0.68420000  0.29890000  0.11550000  1
  C  C1658  1  0.67820000  0.27110000  0.09660000  1
  C  C1659  1  0.73393000  0.87013000  0.77680000  1
  C  C1660  1  0.70850000  0.86800000  0.75150000  1
  C  C1661  1  0.69840000  0.86030000  0.65630000  1
  C  C1662  1  0.67200000  0.86000000  0.63020000  1
  C  C1663  1  0.65200000  0.89060000  0.62430000  1
  C  C1664  1  0.65870000  0.92130000  0.64200000  1
  C  C1665  1  0.66530000  0.83150000  0.60870000  1
  C  C1666  1  0.68420000  0.79890000  0.61550000  1
  C  C1667  1  0.67820000  0.77110000  0.59660000  1
  C  C1668  1  0.51607000  0.87013000  0.47320000  1
  C  C1669  1  0.54150000  0.86800000  0.49850000  1
  C  C1670  1  0.51607000  0.37013000  0.97320000  1
  C  C1671  1  0.54150000  0.36800000  0.99850000  1
  C  C1672  1  0.01607000  0.87013000  0.97320000  1
  C  C1673  1  0.04150000  0.86800000  0.99850000  1
  C  C1674  1  0.05160000  0.86030000  0.09370000  1
  C  C1675  1  0.07800000  0.86000000  0.11980000  1
  C  C1676  1  0.09800000  0.89060000  0.12570000  1
  C  C1677  1  0.09130000  0.92130000  0.10800000  1
  C  C1678  1  0.08470000  0.83150000  0.14130000  1
  C  C1679  1  0.06580000  0.79890000  0.13450000  1
  C  C1680  1  0.07180000  0.77110000  0.15340000  1
  C  C1681  1  0.01607000  0.37013000  0.47320000  1
  C  C1682  1  0.04150000  0.36800000  0.49850000  1
  C  C1683  1  0.05160000  0.36030000  0.59370000  1
  C  C1684  1  0.07800000  0.36000000  0.61980000  1
  C  C1685  1  0.09800000  0.39060000  0.62570000  1
  C  C1686  1  0.09130000  0.42130000  0.60800000  1
  C  C1687  1  0.08470000  0.33150000  0.64130000  1
  C  C1688  1  0.06580000  0.29890000  0.63450000  1
  C  C1689  1  0.07180000  0.27110000  0.65340000  1
  C  C1690  1  0.01607000  0.37987000  0.27680000  1
  C  C1691  1  0.04150000  0.38200000  0.25150000  1
  C  C1692  1  0.01607000  0.87987000  0.77680000  1
  C  C1693  1  0.04150000  0.88200000  0.75150000  1
  C  C1694  1  0.51607000  0.37987000  0.77680000  1
  C  C1695  1  0.54150000  0.38200000  0.75150000  1
  C  C1696  1  0.55160000  0.38970000  0.65630000  1
  C  C1697  1  0.57800000  0.39000000  0.63020000  1
  C  C1698  1  0.59800000  0.35940000  0.62430000  1
  C  C1699  1  0.59130000  0.32870000  0.64200000  1
  C  C1700  1  0.58470000  0.41850000  0.60870000  1
  C  C1701  1  0.56580000  0.45110000  0.61550000  1
  C  C1702  1  0.57180000  0.47890000  0.59660000  1
  C  C1703  1  0.51607000  0.87987000  0.27680000  1
  C  C1704  1  0.54150000  0.88200000  0.25150000  1
  C  C1705  1  0.55160000  0.88970000  0.15630000  1
  C  C1706  1  0.57800000  0.89000000  0.13020000  1
  C  C1707  1  0.59800000  0.85940000  0.12430000  1
  C  C1708  1  0.59130000  0.82870000  0.14200000  1
  C  C1709  1  0.58470000  0.91850000  0.10870000  1
  C  C1710  1  0.56580000  0.95110000  0.11550000  1
  C  C1711  1  0.57180000  0.97890000  0.09660000  1
  C  C1712  1  0.97320000  0.73393000  0.87987000  1
  C  C1713  1  0.99850000  0.70850000  0.88200000  1
  C  C1714  1  0.97320000  0.23393000  0.37987000  1
  C  C1715  1  0.99850000  0.20850000  0.38200000  1
  C  C1716  1  0.47320000  0.73393000  0.37987000  1
  C  C1717  1  0.49850000  0.70850000  0.38200000  1
  C  C1718  1  0.47320000  0.23393000  0.87987000  1
  C  C1719  1  0.49850000  0.20850000  0.88200000  1
  C  C1720  1  0.77680000  0.23393000  0.37013000  1
  C  C1721  1  0.75150000  0.20850000  0.36800000  1
  C  C1722  1  0.77680000  0.73393000  0.87013000  1
  C  C1723  1  0.75150000  0.70850000  0.86800000  1
  C  C1724  1  0.27680000  0.23393000  0.87013000  1
  C  C1725  1  0.25150000  0.20850000  0.86800000  1
  C  C1726  1  0.27680000  0.73393000  0.37013000  1
  C  C1727  1  0.25150000  0.70850000  0.36800000  1
  C  C1728  1  0.47320000  0.51607000  0.87013000  1
  C  C1729  1  0.49850000  0.54150000  0.86800000  1
  C  C1730  1  0.59370000  0.55160000  0.86030000  1
  C  C1731  1  0.61980000  0.57800000  0.86000000  1
  C  C1732  1  0.62570000  0.59800000  0.89060000  1
  C  C1733  1  0.60800000  0.59130000  0.92130000  1
  C  C1734  1  0.64130000  0.58470000  0.83150000  1
  C  C1735  1  0.63450000  0.56580000  0.79890000  1
  C  C1736  1  0.65340000  0.57180000  0.77110000  1
  C  C1737  1  0.47320000  0.01607000  0.37013000  1
  C  C1738  1  0.49850000  0.04150000  0.36800000  1
  C  C1739  1  0.59370000  0.05160000  0.36030000  1
  C  C1740  1  0.61980000  0.07800000  0.36000000  1
  C  C1741  1  0.62570000  0.09800000  0.39060000  1
  C  C1742  1  0.60800000  0.09130000  0.42130000  1
  C  C1743  1  0.64130000  0.08470000  0.33150000  1
  C  C1744  1  0.63450000  0.06580000  0.29890000  1
  C  C1745  1  0.65340000  0.07180000  0.27110000  1
  C  C1746  1  0.97320000  0.51607000  0.37013000  1
  C  C1747  1  0.99850000  0.54150000  0.36800000  1
  C  C1748  1  0.09370000  0.55160000  0.36030000  1
  C  C1749  1  0.11980000  0.57800000  0.36000000  1
  C  C1750  1  0.12570000  0.59800000  0.39060000  1
  C  C1751  1  0.10800000  0.59130000  0.42130000  1
  C  C1752  1  0.14130000  0.58470000  0.33150000  1
  C  C1753  1  0.13450000  0.56580000  0.29890000  1
  C  C1754  1  0.15340000  0.57180000  0.27110000  1
  C  C1755  1  0.97320000  0.01607000  0.87013000  1
  C  C1756  1  0.99850000  0.04150000  0.86800000  1
  C  C1757  1  0.09370000  0.05160000  0.86030000  1
  C  C1758  1  0.11980000  0.07800000  0.86000000  1
  C  C1759  1  0.12570000  0.09800000  0.89060000  1
  C  C1760  1  0.10800000  0.09130000  0.92130000  1
  C  C1761  1  0.14130000  0.08470000  0.83150000  1
  C  C1762  1  0.13450000  0.06580000  0.79890000  1
  C  C1763  1  0.15340000  0.07180000  0.77110000  1
  C  C1764  1  0.27680000  0.01607000  0.37987000  1
  C  C1765  1  0.25150000  0.04150000  0.38200000  1
  C  C1766  1  0.15630000  0.05160000  0.38970000  1
  C  C1767  1  0.13020000  0.07800000  0.39000000  1
  C  C1768  1  0.12430000  0.09800000  0.35940000  1
  C  C1769  1  0.14200000  0.09130000  0.32870000  1
  C  C1770  1  0.10870000  0.08470000  0.41850000  1
  C  C1771  1  0.11550000  0.06580000  0.45110000  1
  C  C1772  1  0.09660000  0.07180000  0.47890000  1
  C  C1773  1  0.27680000  0.51607000  0.87987000  1
  C  C1774  1  0.25150000  0.54150000  0.88200000  1
  C  C1775  1  0.15630000  0.55160000  0.88970000  1
  C  C1776  1  0.13020000  0.57800000  0.89000000  1
  C  C1777  1  0.12430000  0.59800000  0.85940000  1
  C  C1778  1  0.14200000  0.59130000  0.82870000  1
  C  C1779  1  0.10870000  0.58470000  0.91850000  1
  C  C1780  1  0.11550000  0.56580000  0.95110000  1
  C  C1781  1  0.09660000  0.57180000  0.97890000  1
  C  C1782  1  0.77680000  0.01607000  0.87987000  1
  C  C1783  1  0.75150000  0.04150000  0.88200000  1
  C  C1784  1  0.65630000  0.05160000  0.88970000  1
  C  C1785  1  0.63020000  0.07800000  0.89000000  1
  C  C1786  1  0.62430000  0.09800000  0.85940000  1
  C  C1787  1  0.64200000  0.09130000  0.82870000  1
  C  C1788  1  0.60870000  0.08470000  0.91850000  1
  C  C1789  1  0.61550000  0.06580000  0.95110000  1
  C  C1790  1  0.59660000  0.07180000  0.97890000  1
  C  C1791  1  0.77680000  0.51607000  0.37987000  1
  C  C1792  1  0.75150000  0.54150000  0.38200000  1
  C  C1793  1  0.65630000  0.55160000  0.38970000  1
  C  C1794  1  0.63020000  0.57800000  0.39000000  1
  C  C1795  1  0.62430000  0.59800000  0.35940000  1
  C  C1796  1  0.64200000  0.59130000  0.32870000  1
  C  C1797  1  0.60870000  0.58470000  0.41850000  1
  C  C1798  1  0.61550000  0.56580000  0.45110000  1
  C  C1799  1  0.59660000  0.57180000  0.47890000  1
  C  C1800  1  0.22320000  0.62987000  0.76607000  1
  C  C1801  1  0.24850000  0.63200000  0.79150000  1
  C  C1802  1  0.22320000  0.12987000  0.26607000  1
  C  C1803  1  0.24850000  0.13200000  0.29150000  1
  C  C1804  1  0.34370000  0.13970000  0.30160000  1
  C  C1805  1  0.36980000  0.14000000  0.32800000  1
  C  C1806  1  0.37570000  0.10940000  0.34800000  1
  C  C1807  1  0.35800000  0.07870000  0.34130000  1
  C  C1808  1  0.39130000  0.16850000  0.33470000  1
  C  C1809  1  0.38450000  0.20110000  0.31580000  1
  C  C1810  1  0.40340000  0.22890000  0.32180000  1
  C  C1811  1  0.72320000  0.62987000  0.26607000  1
  C  C1812  1  0.74850000  0.63200000  0.29150000  1
  C  C1813  1  0.84370000  0.63970000  0.30160000  1
  C  C1814  1  0.86980000  0.64000000  0.32800000  1
  C  C1815  1  0.87570000  0.60940000  0.34800000  1
  C  C1816  1  0.85800000  0.57870000  0.34130000  1
  C  C1817  1  0.89130000  0.66850000  0.33470000  1
  C  C1818  1  0.88450000  0.70110000  0.31580000  1
  C  C1819  1  0.90340000  0.72890000  0.32180000  1
  C  C1820  1  0.72320000  0.12987000  0.76607000  1
  C  C1821  1  0.74850000  0.13200000  0.79150000  1
  C  C1822  1  0.84370000  0.13970000  0.80160000  1
  C  C1823  1  0.86980000  0.14000000  0.82800000  1
  C  C1824  1  0.87570000  0.10940000  0.84800000  1
  C  C1825  1  0.85800000  0.07870000  0.84130000  1
  C  C1826  1  0.89130000  0.16850000  0.83470000  1
  C  C1827  1  0.88450000  0.20110000  0.81580000  1
  C  C1828  1  0.90340000  0.22890000  0.82180000  1
  C  C1829  1  0.02680000  0.12013000  0.26607000  1
  C  C1830  1  0.00150000  0.11800000  0.29150000  1
  C  C1831  1  0.90630000  0.11030000  0.30160000  1
  C  C1832  1  0.88020000  0.11000000  0.32800000  1
  C  C1833  1  0.87430000  0.14060000  0.34800000  1
  C  C1834  1  0.89200000  0.17130000  0.34130000  1
  C  C1835  1  0.85870000  0.08150000  0.33470000  1
  C  C1836  1  0.86550000  0.04890000  0.31580000  1
  C  C1837  1  0.84660000  0.02110000  0.32180000  1
  C  C1838  1  0.02680000  0.62013000  0.76607000  1
  C  C1839  1  0.00150000  0.61800000  0.79150000  1
  C  C1840  1  0.90630000  0.61030000  0.80160000  1
  C  C1841  1  0.88020000  0.61000000  0.82800000  1
  C  C1842  1  0.87430000  0.64060000  0.84800000  1
  C  C1843  1  0.89200000  0.67130000  0.84130000  1
  C  C1844  1  0.85870000  0.58150000  0.83470000  1
  C  C1845  1  0.86550000  0.54890000  0.81580000  1
  C  C1846  1  0.84660000  0.52110000  0.82180000  1
  C  C1847  1  0.52680000  0.12013000  0.76607000  1
  C  C1848  1  0.50150000  0.11800000  0.79150000  1
  C  C1849  1  0.40630000  0.11030000  0.80160000  1
  C  C1850  1  0.38020000  0.11000000  0.82800000  1
  C  C1851  1  0.37430000  0.14060000  0.84800000  1
  C  C1852  1  0.39200000  0.17130000  0.84130000  1
  C  C1853  1  0.35870000  0.08150000  0.83470000  1
  C  C1854  1  0.36550000  0.04890000  0.81580000  1
  C  C1855  1  0.34660000  0.02110000  0.82180000  1
  C  C1856  1  0.52680000  0.62013000  0.26607000  1
  C  C1857  1  0.50150000  0.61800000  0.29150000  1
  C  C1858  1  0.72320000  0.62013000  0.98393000  1
  C  C1859  1  0.74850000  0.61800000  0.95850000  1
  C  C1860  1  0.72320000  0.12013000  0.48393000  1
  C  C1861  1  0.74850000  0.11800000  0.45850000  1
  C  C1862  1  0.22320000  0.62013000  0.48393000  1
  C  C1863  1  0.24850000  0.61800000  0.45850000  1
  C  C1864  1  0.34370000  0.61030000  0.44840000  1
  C  C1865  1  0.36980000  0.61000000  0.42200000  1
  C  C1866  1  0.37570000  0.64060000  0.40200000  1
  C  C1867  1  0.35800000  0.67130000  0.40870000  1
  C  C1868  1  0.39130000  0.58150000  0.41530000  1
  C  C1869  1  0.38450000  0.54890000  0.43420000  1
  C  C1870  1  0.40340000  0.52110000  0.42820000  1
  C  C1871  1  0.22320000  0.12013000  0.98393000  1
  C  C1872  1  0.24850000  0.11800000  0.95850000  1
  C  C1873  1  0.52680000  0.12987000  0.48393000  1
  C  C1874  1  0.50150000  0.13200000  0.45850000  1
  C  C1875  1  0.52680000  0.62987000  0.98393000  1
  C  C1876  1  0.50150000  0.63200000  0.95850000  1
  C  C1877  1  0.40630000  0.63970000  0.94840000  1
  C  C1878  1  0.38020000  0.64000000  0.92200000  1
  C  C1879  1  0.37430000  0.60940000  0.90200000  1
  C  C1880  1  0.39200000  0.57870000  0.90870000  1
  C  C1881  1  0.35870000  0.66850000  0.91530000  1
  C  C1882  1  0.36550000  0.70110000  0.93420000  1
  C  C1883  1  0.34660000  0.72890000  0.92820000  1
  C  C1884  1  0.02680000  0.12987000  0.98393000  1
  C  C1885  1  0.00150000  0.13200000  0.95850000  1
  C  C1886  1  0.02680000  0.62987000  0.48393000  1
  C  C1887  1  0.00150000  0.63200000  0.45850000  1
  C  C1888  1  0.12987000  0.48393000  0.52680000  1
  C  C1889  1  0.13200000  0.45850000  0.50150000  1
  C  C1890  1  0.13970000  0.44840000  0.40630000  1
  C  C1891  1  0.14000000  0.42200000  0.38020000  1
  C  C1892  1  0.10940000  0.40200000  0.37430000  1
  C  C1893  1  0.07870000  0.40870000  0.39200000  1
  C  C1894  1  0.16850000  0.41530000  0.35870000  1
  C  C1895  1  0.20110000  0.43420000  0.36550000  1
  C  C1896  1  0.22890000  0.42820000  0.34660000  1
  C  C1897  1  0.12987000  0.98393000  0.02680000  1
  C  C1898  1  0.13200000  0.95850000  0.00150000  1
  C  C1899  1  0.13970000  0.94840000  0.90630000  1
  C  C1900  1  0.14000000  0.92200000  0.88020000  1
  C  C1901  1  0.10940000  0.90200000  0.87430000  1
  C  C1902  1  0.07870000  0.90870000  0.89200000  1
  C  C1903  1  0.16850000  0.91530000  0.85870000  1
  C  C1904  1  0.20110000  0.93420000  0.86550000  1
  C  C1905  1  0.22890000  0.92820000  0.84660000  1
  C  C1906  1  0.62987000  0.48393000  0.02680000  1
  C  C1907  1  0.63200000  0.45850000  0.00150000  1
  C  C1908  1  0.63970000  0.44840000  0.90630000  1
  C  C1909  1  0.64000000  0.42200000  0.88020000  1
  C  C1910  1  0.60940000  0.40200000  0.87430000  1
  C  C1911  1  0.57870000  0.40870000  0.89200000  1
  C  C1912  1  0.66850000  0.41530000  0.85870000  1
  C  C1913  1  0.70110000  0.43420000  0.86550000  1
  C  C1914  1  0.72890000  0.42820000  0.84660000  1
  C  C1915  1  0.62987000  0.98393000  0.52680000  1
  C  C1916  1  0.63200000  0.95850000  0.50150000  1
  C  C1917  1  0.63970000  0.94840000  0.40630000  1
  C  C1918  1  0.64000000  0.92200000  0.38020000  1
  C  C1919  1  0.60940000  0.90200000  0.37430000  1
  C  C1920  1  0.57870000  0.90870000  0.39200000  1
  C  C1921  1  0.66850000  0.91530000  0.35870000  1
  C  C1922  1  0.70110000  0.93420000  0.36550000  1
  C  C1923  1  0.72890000  0.92820000  0.34660000  1
  C  C1924  1  0.62013000  0.98393000  0.72320000  1
  C  C1925  1  0.61800000  0.95850000  0.74850000  1
  C  C1926  1  0.61030000  0.94840000  0.84370000  1
  C  C1927  1  0.61000000  0.92200000  0.86980000  1
  C  C1928  1  0.64060000  0.90200000  0.87570000  1
  C  C1929  1  0.67130000  0.90870000  0.85800000  1
  C  C1930  1  0.58150000  0.91530000  0.89130000  1
  C  C1931  1  0.54890000  0.93420000  0.88450000  1
  C  C1932  1  0.52110000  0.92820000  0.90340000  1
  C  C1933  1  0.62013000  0.48393000  0.22320000  1
  C  C1934  1  0.61800000  0.45850000  0.24850000  1
  C  C1935  1  0.61030000  0.44840000  0.34370000  1
  C  C1936  1  0.61000000  0.42200000  0.36980000  1
  C  C1937  1  0.64060000  0.40200000  0.37570000  1
  C  C1938  1  0.67130000  0.40870000  0.35800000  1
  C  C1939  1  0.58150000  0.41530000  0.39130000  1
  C  C1940  1  0.54890000  0.43420000  0.38450000  1
  C  C1941  1  0.52110000  0.42820000  0.40340000  1
  C  C1942  1  0.12013000  0.98393000  0.22320000  1
  C  C1943  1  0.11800000  0.95850000  0.24850000  1
  C  C1944  1  0.12013000  0.48393000  0.72320000  1
  C  C1945  1  0.11800000  0.45850000  0.74850000  1
  C  C1946  1  0.12013000  0.26607000  0.02680000  1
  C  C1947  1  0.11800000  0.29150000  0.00150000  1
  C  C1948  1  0.11030000  0.30160000  0.90630000  1
  C  C1949  1  0.11000000  0.32800000  0.88020000  1
  C  C1950  1  0.14060000  0.34800000  0.87430000  1
  C  C1951  1  0.17130000  0.34130000  0.89200000  1
  C  C1952  1  0.08150000  0.33470000  0.85870000  1
  C  C1953  1  0.04890000  0.31580000  0.86550000  1
  C  C1954  1  0.02110000  0.32180000  0.84660000  1
  C  C1955  1  0.12013000  0.76607000  0.52680000  1
  C  C1956  1  0.11800000  0.79150000  0.50150000  1
  C  C1957  1  0.11030000  0.80160000  0.40630000  1
  C  C1958  1  0.11000000  0.82800000  0.38020000  1
  C  C1959  1  0.14060000  0.84800000  0.37430000  1
  C  C1960  1  0.17130000  0.84130000  0.39200000  1
  C  C1961  1  0.08150000  0.83470000  0.35870000  1
  C  C1962  1  0.04890000  0.81580000  0.36550000  1
  C  C1963  1  0.02110000  0.82180000  0.34660000  1
  C  C1964  1  0.62013000  0.26607000  0.52680000  1
  C  C1965  1  0.61800000  0.29150000  0.50150000  1
  C  C1966  1  0.62013000  0.76607000  0.02680000  1
  C  C1967  1  0.61800000  0.79150000  0.00150000  1
  C  C1968  1  0.62987000  0.76607000  0.22320000  1
  C  C1969  1  0.63200000  0.79150000  0.24850000  1
  C  C1970  1  0.62987000  0.26607000  0.72320000  1
  C  C1971  1  0.63200000  0.29150000  0.74850000  1
  C  C1972  1  0.12987000  0.76607000  0.72320000  1
  C  C1973  1  0.13200000  0.79150000  0.74850000  1
  C  C1974  1  0.12987000  0.26607000  0.22320000  1
  C  C1975  1  0.13200000  0.29150000  0.24850000  1
  C  C1976  1  0.98393000  0.72320000  0.62013000  1
  C  C1977  1  0.95850000  0.74850000  0.61800000  1
  C  C1978  1  0.94840000  0.84370000  0.61030000  1
  C  C1979  1  0.92200000  0.86980000  0.61000000  1
  C  C1980  1  0.90200000  0.87570000  0.64060000  1
  C  C1981  1  0.90870000  0.85800000  0.67130000  1
  C  C1982  1  0.91530000  0.89130000  0.58150000  1
  C  C1983  1  0.93420000  0.88450000  0.54890000  1
  C  C1984  1  0.92820000  0.90340000  0.52110000  1
  C  C1985  1  0.98393000  0.22320000  0.12013000  1
  C  C1986  1  0.95850000  0.24850000  0.11800000  1
  C  C1987  1  0.48393000  0.72320000  0.12013000  1
  C  C1988  1  0.45850000  0.74850000  0.11800000  1
  C  C1989  1  0.44840000  0.84370000  0.11030000  1
  C  C1990  1  0.42200000  0.86980000  0.11000000  1
  C  C1991  1  0.40200000  0.87570000  0.14060000  1
  C  C1992  1  0.40870000  0.85800000  0.17130000  1
  C  C1993  1  0.41530000  0.89130000  0.08150000  1
  C  C1994  1  0.43420000  0.88450000  0.04890000  1
  C  C1995  1  0.42820000  0.90340000  0.02110000  1
  C  C1996  1  0.48393000  0.22320000  0.62013000  1
  C  C1997  1  0.45850000  0.24850000  0.61800000  1
  C  C1998  1  0.44840000  0.34370000  0.61030000  1
  C  C1999  1  0.42200000  0.36980000  0.61000000  1
  C  C2000  1  0.40200000  0.37570000  0.64060000  1
  C  C2001  1  0.40870000  0.35800000  0.67130000  1
  C  C2002  1  0.41530000  0.39130000  0.58150000  1
  C  C2003  1  0.43420000  0.38450000  0.54890000  1
  C  C2004  1  0.42820000  0.40340000  0.52110000  1
  C  C2005  1  0.48393000  0.52680000  0.12987000  1
  C  C2006  1  0.45850000  0.50150000  0.13200000  1
  C  C2007  1  0.44840000  0.40630000  0.13970000  1
  C  C2008  1  0.42200000  0.38020000  0.14000000  1
  C  C2009  1  0.40200000  0.37430000  0.10940000  1
  C  C2010  1  0.40870000  0.39200000  0.07870000  1
  C  C2011  1  0.41530000  0.35870000  0.16850000  1
  C  C2012  1  0.43420000  0.36550000  0.20110000  1
  C  C2013  1  0.42820000  0.34660000  0.22890000  1
  C  C2014  1  0.48393000  0.02680000  0.62987000  1
  C  C2015  1  0.45850000  0.00150000  0.63200000  1
  C  C2016  1  0.98393000  0.52680000  0.62987000  1
  C  C2017  1  0.95850000  0.50150000  0.63200000  1
  C  C2018  1  0.94840000  0.40630000  0.63970000  1
  C  C2019  1  0.92200000  0.38020000  0.64000000  1
  C  C2020  1  0.90200000  0.37430000  0.60940000  1
  C  C2021  1  0.90870000  0.39200000  0.57870000  1
  C  C2022  1  0.91530000  0.35870000  0.66850000  1
  C  C2023  1  0.93420000  0.36550000  0.70110000  1
  C  C2024  1  0.92820000  0.34660000  0.72890000  1
  C  C2025  1  0.98393000  0.02680000  0.12987000  1
  C  C2026  1  0.95850000  0.00150000  0.13200000  1
  C  C2027  1  0.94840000  0.90630000  0.13970000  1
  C  C2028  1  0.92200000  0.88020000  0.14000000  1
  C  C2029  1  0.90200000  0.87430000  0.10940000  1
  C  C2030  1  0.90870000  0.89200000  0.07870000  1
  C  C2031  1  0.91530000  0.85870000  0.16850000  1
  C  C2032  1  0.93420000  0.86550000  0.20110000  1
  C  C2033  1  0.92820000  0.84660000  0.22890000  1
  C  C2034  1  0.76607000  0.22320000  0.62987000  1
  C  C2035  1  0.79150000  0.24850000  0.63200000  1
  C  C2036  1  0.76607000  0.72320000  0.12987000  1
  C  C2037  1  0.79150000  0.74850000  0.13200000  1
  C  C2038  1  0.26607000  0.22320000  0.12987000  1
  C  C2039  1  0.29150000  0.24850000  0.13200000  1
  C  C2040  1  0.26607000  0.72320000  0.62987000  1
  C  C2041  1  0.29150000  0.74850000  0.63200000  1
  C  C2042  1  0.30160000  0.84370000  0.63970000  1
  C  C2043  1  0.32800000  0.86980000  0.64000000  1
  C  C2044  1  0.34800000  0.87570000  0.60940000  1
  C  C2045  1  0.34130000  0.85800000  0.57870000  1
  C  C2046  1  0.33470000  0.89130000  0.66850000  1
  C  C2047  1  0.31580000  0.88450000  0.70110000  1
  C  C2048  1  0.32180000  0.90340000  0.72890000  1
  C  C2049  1  0.26607000  0.02680000  0.12013000  1
  C  C2050  1  0.29150000  0.00150000  0.11800000  1
  C  C2051  1  0.26607000  0.52680000  0.62013000  1
  C  C2052  1  0.29150000  0.50150000  0.61800000  1
  C  C2053  1  0.76607000  0.02680000  0.62013000  1
  C  C2054  1  0.79150000  0.00150000  0.61800000  1
  C  C2055  1  0.76607000  0.52680000  0.12013000  1
  C  C2056  1  0.79150000  0.50150000  0.11800000  1
  C  C2057  1  0.80160000  0.40630000  0.11030000  1
  C  C2058  1  0.82800000  0.38020000  0.11000000  1
  C  C2059  1  0.84800000  0.37430000  0.14060000  1
  C  C2060  1  0.84130000  0.39200000  0.17130000  1
  C  C2061  1  0.83470000  0.35870000  0.08150000  1
  C  C2062  1  0.81580000  0.36550000  0.04890000  1
  C  C2063  1  0.82180000  0.34660000  0.02110000  1
  C  C2064  1  0.12375000  0.04454000  0.20546000  1
  C  C2065  1  0.12080000  0.01801000  0.23199000  1
  C  C2066  1  0.11780000  0.96730000  0.28270000  1
  C  C2067  1  0.11750000  0.94060000  0.30940000  1
  C  C2068  1  0.20160000  0.88783000  0.36217000  1
  C  C2069  1  0.12375000  0.54454000  0.70546000  1
  C  C2070  1  0.12080000  0.51801000  0.73199000  1
  C  C2071  1  0.11780000  0.46730000  0.78270000  1
  C  C2072  1  0.11750000  0.44060000  0.80940000  1
  C  C2073  1  0.20160000  0.38783000  0.86217000  1
  C  C2074  1  0.62625000  0.20546000  0.70546000  1
  C  C2075  1  0.62920000  0.23199000  0.73199000  1
  C  C2076  1  0.63220000  0.28270000  0.78270000  1
  C  C2077  1  0.63250000  0.30940000  0.80940000  1
  C  C2078  1  0.54840000  0.36217000  0.86217000  1
  C  C2079  1  0.12625000  0.20546000  0.20546000  1
  C  C2080  1  0.12920000  0.23199000  0.23199000  1
  C  C2081  1  0.13220000  0.28270000  0.28270000  1
  C  C2082  1  0.13250000  0.30940000  0.30940000  1
  C  C2083  1  0.04840000  0.36217000  0.36217000  1
  C  C2084  1  0.12625000  0.54454000  0.54454000  1
  C  C2085  1  0.12920000  0.51801000  0.51801000  1
  C  C2086  1  0.13220000  0.46730000  0.46730000  1
  C  C2087  1  0.13250000  0.44060000  0.44060000  1
  C  C2088  1  0.04840000  0.38783000  0.38783000  1
  C  C2089  1  0.12625000  0.04454000  0.04454000  1
  C  C2090  1  0.12920000  0.01801000  0.01801000  1
  C  C2091  1  0.13220000  0.96730000  0.96730000  1
  C  C2092  1  0.13250000  0.94060000  0.94060000  1
  C  C2093  1  0.04840000  0.88783000  0.88783000  1
  C  C2094  1  0.62625000  0.54454000  0.04454000  1
  C  C2095  1  0.62920000  0.51801000  0.01801000  1
  C  C2096  1  0.63220000  0.46730000  0.96730000  1
  C  C2097  1  0.63250000  0.44060000  0.94060000  1
  C  C2098  1  0.54840000  0.38783000  0.88783000  1
  C  C2099  1  0.62625000  0.04454000  0.54454000  1
  C  C2100  1  0.62920000  0.01801000  0.51801000  1
  C  C2101  1  0.63220000  0.96730000  0.46730000  1
  C  C2102  1  0.63250000  0.94060000  0.44060000  1
  C  C2103  1  0.54840000  0.88783000  0.38783000  1
  C  C2104  1  0.62375000  0.70546000  0.04454000  1
  C  C2105  1  0.62080000  0.73199000  0.01801000  1
  C  C2106  1  0.61780000  0.78270000  0.96730000  1
  C  C2107  1  0.61750000  0.80940000  0.94060000  1
  C  C2108  1  0.70160000  0.86217000  0.88783000  1
  C  C2109  1  0.62375000  0.20546000  0.54454000  1
  C  C2110  1  0.62080000  0.23199000  0.51801000  1
  C  C2111  1  0.61780000  0.28270000  0.46730000  1
  C  C2112  1  0.61750000  0.30940000  0.44060000  1
  C  C2113  1  0.70160000  0.36217000  0.38783000  1
  C  C2114  1  0.20546000  0.12375000  0.04454000  1
  C  C2115  1  0.23199000  0.12080000  0.01801000  1
  C  C2116  1  0.28270000  0.11780000  0.96730000  1
  C  C2117  1  0.30940000  0.11750000  0.94060000  1
  C  C2118  1  0.36217000  0.20160000  0.88783000  1
  C  C2119  1  0.20546000  0.62375000  0.54454000  1
  C  C2120  1  0.23199000  0.62080000  0.51801000  1
  C  C2121  1  0.28270000  0.61780000  0.46730000  1
  C  C2122  1  0.30940000  0.61750000  0.44060000  1
  C  C2123  1  0.36217000  0.70160000  0.38783000  1
  C  C2124  1  0.70546000  0.62625000  0.20546000  1
  C  C2125  1  0.73199000  0.62920000  0.23199000  1
  C  C2126  1  0.78270000  0.63220000  0.28270000  1
  C  C2127  1  0.80940000  0.63250000  0.30940000  1
  C  C2128  1  0.86217000  0.54840000  0.36217000  1
  C  C2129  1  0.70546000  0.12625000  0.70546000  1
  C  C2130  1  0.73199000  0.12920000  0.73199000  1
  C  C2131  1  0.78270000  0.13220000  0.78270000  1
  C  C2132  1  0.80940000  0.13250000  0.80940000  1
  C  C2133  1  0.86217000  0.04840000  0.86217000  1
  C  C2134  1  0.54454000  0.12625000  0.54454000  1
  C  C2135  1  0.51801000  0.12920000  0.51801000  1
  C  C2136  1  0.46730000  0.13220000  0.46730000  1
  C  C2137  1  0.44060000  0.13250000  0.44060000  1
  C  C2138  1  0.38783000  0.04840000  0.38783000  1
  C  C2139  1  0.54454000  0.62625000  0.04454000  1
  C  C2140  1  0.51801000  0.62920000  0.01801000  1
  C  C2141  1  0.46730000  0.63220000  0.96730000  1
  C  C2142  1  0.44060000  0.63250000  0.94060000  1
  C  C2143  1  0.38783000  0.54840000  0.88783000  1
  C  C2144  1  0.04454000  0.12625000  0.04454000  1
  C  C2145  1  0.01801000  0.12920000  0.01801000  1
  C  C2146  1  0.96730000  0.13220000  0.96730000  1
  C  C2147  1  0.94060000  0.13250000  0.94060000  1
  C  C2148  1  0.88783000  0.04840000  0.88783000  1
  C  C2149  1  0.04454000  0.62625000  0.54454000  1
  C  C2150  1  0.01801000  0.62920000  0.51801000  1
  C  C2151  1  0.96730000  0.63220000  0.46730000  1
  C  C2152  1  0.94060000  0.63250000  0.44060000  1
  C  C2153  1  0.88783000  0.54840000  0.38783000  1
  C  C2154  1  0.04454000  0.62375000  0.70546000  1
  C  C2155  1  0.01801000  0.62080000  0.73199000  1
  C  C2156  1  0.96730000  0.61780000  0.78270000  1
  C  C2157  1  0.94060000  0.61750000  0.80940000  1
  C  C2158  1  0.88783000  0.70160000  0.86217000  1
  C  C2159  1  0.54454000  0.62375000  0.20546000  1
  C  C2160  1  0.51801000  0.62080000  0.23199000  1
  C  C2161  1  0.46730000  0.61780000  0.28270000  1
  C  C2162  1  0.44060000  0.61750000  0.30940000  1
  C  C2163  1  0.38783000  0.70160000  0.36217000  1
  C  C2164  1  0.04454000  0.20546000  0.12375000  1
  C  C2165  1  0.01801000  0.23199000  0.12080000  1
  C  C2166  1  0.96730000  0.28270000  0.11780000  1
  C  C2167  1  0.94060000  0.30940000  0.11750000  1
  C  C2168  1  0.88783000  0.36217000  0.20160000  1
  C  C2169  1  0.54454000  0.20546000  0.62375000  1
  C  C2170  1  0.51801000  0.23199000  0.62080000  1
  C  C2171  1  0.46730000  0.28270000  0.61780000  1
  C  C2172  1  0.44060000  0.30940000  0.61750000  1
  C  C2173  1  0.38783000  0.36217000  0.70160000  1
  C  C2174  1  0.20546000  0.70546000  0.62625000  1
  C  C2175  1  0.23199000  0.73199000  0.62920000  1
  C  C2176  1  0.28270000  0.78270000  0.63220000  1
  C  C2177  1  0.30940000  0.80940000  0.63250000  1
  C  C2178  1  0.36217000  0.86217000  0.54840000  1
  C  C2179  1  0.20546000  0.20546000  0.12625000  1
  C  C2180  1  0.23199000  0.23199000  0.12920000  1
  C  C2181  1  0.28270000  0.28270000  0.13220000  1
  C  C2182  1  0.30940000  0.30940000  0.13250000  1
  C  C2183  1  0.36217000  0.36217000  0.04840000  1
  C  C2184  1  0.54454000  0.54454000  0.12625000  1
  C  C2185  1  0.51801000  0.51801000  0.12920000  1
  C  C2186  1  0.46730000  0.46730000  0.13220000  1
  C  C2187  1  0.44060000  0.44060000  0.13250000  1
  C  C2188  1  0.38783000  0.38783000  0.04840000  1
  C  C2189  1  0.54454000  0.04454000  0.62625000  1
  C  C2190  1  0.51801000  0.01801000  0.62920000  1
  C  C2191  1  0.46730000  0.96730000  0.63220000  1
  C  C2192  1  0.44060000  0.94060000  0.63250000  1
  C  C2193  1  0.38783000  0.88783000  0.54840000  1
  C  C2194  1  0.04454000  0.54454000  0.62625000  1
  C  C2195  1  0.01801000  0.51801000  0.62920000  1
  C  C2196  1  0.96730000  0.46730000  0.63220000  1
  C  C2197  1  0.94060000  0.44060000  0.63250000  1
  C  C2198  1  0.88783000  0.38783000  0.54840000  1
  C  C2199  1  0.04454000  0.04454000  0.12625000  1
  C  C2200  1  0.01801000  0.01801000  0.12920000  1
  C  C2201  1  0.96730000  0.96730000  0.13220000  1
  C  C2202  1  0.94060000  0.94060000  0.13250000  1
  C  C2203  1  0.88783000  0.88783000  0.04840000  1
  C  C2204  1  0.70546000  0.04454000  0.62375000  1
  C  C2205  1  0.73199000  0.01801000  0.62080000  1
  C  C2206  1  0.78270000  0.96730000  0.61780000  1
  C  C2207  1  0.80940000  0.94060000  0.61750000  1
  C  C2208  1  0.86217000  0.88783000  0.70160000  1
  C  C2209  1  0.70546000  0.54454000  0.12375000  1
  C  C2210  1  0.73199000  0.51801000  0.12080000  1
  C  C2211  1  0.78270000  0.46730000  0.11780000  1
  C  C2212  1  0.80940000  0.44060000  0.11750000  1
  C  C2213  1  0.86217000  0.38783000  0.20160000  1
  C  C2214  1  0.79454000  0.37375000  0.29454000  1
  C  C2215  1  0.76801000  0.37080000  0.26801000  1
  C  C2216  1  0.71730000  0.36780000  0.21730000  1
  C  C2217  1  0.69060000  0.36750000  0.19060000  1
  C  C2218  1  0.63783000  0.45160000  0.13783000  1
  C  C2219  1  0.79454000  0.87375000  0.79454000  1
  C  C2220  1  0.76801000  0.87080000  0.76801000  1
  C  C2221  1  0.71730000  0.86780000  0.71730000  1
  C  C2222  1  0.69060000  0.86750000  0.69060000  1
  C  C2223  1  0.63783000  0.95160000  0.63783000  1
  C  C2224  1  0.95546000  0.87625000  0.79454000  1
  C  C2225  1  0.98199000  0.87920000  0.76801000  1
  C  C2226  1  0.03270000  0.88220000  0.71730000  1
  C  C2227  1  0.05940000  0.88250000  0.69060000  1
  C  C2228  1  0.11217000  0.79840000  0.63783000  1
  C  C2229  1  0.45546000  0.87625000  0.29454000  1
  C  C2230  1  0.48199000  0.87920000  0.26801000  1
  C  C2231  1  0.53270000  0.88220000  0.21730000  1
  C  C2232  1  0.55940000  0.88250000  0.19060000  1
  C  C2233  1  0.61217000  0.79840000  0.13783000  1
  C  C2234  1  0.29454000  0.37625000  0.95546000  1
  C  C2235  1  0.26801000  0.37920000  0.98199000  1
  C  C2236  1  0.21730000  0.38220000  0.03270000  1
  C  C2237  1  0.19060000  0.38250000  0.05940000  1
  C  C2238  1  0.13783000  0.29840000  0.11217000  1
  C  C2239  1  0.29454000  0.87625000  0.45546000  1
  C  C2240  1  0.26801000  0.87920000  0.48199000  1
  C  C2241  1  0.21730000  0.88220000  0.53270000  1
  C  C2242  1  0.19060000  0.88250000  0.55940000  1
  C  C2243  1  0.13783000  0.79840000  0.61217000  1
  C  C2244  1  0.45546000  0.87375000  0.45546000  1
  C  C2245  1  0.48199000  0.87080000  0.48199000  1
  C  C2246  1  0.53270000  0.86780000  0.53270000  1
  C  C2247  1  0.55940000  0.86750000  0.55940000  1
  C  C2248  1  0.61217000  0.95160000  0.61217000  1
  C  C2249  1  0.45546000  0.37375000  0.95546000  1
  C  C2250  1  0.48199000  0.37080000  0.98199000  1
  C  C2251  1  0.53270000  0.36780000  0.03270000  1
  C  C2252  1  0.55940000  0.36750000  0.05940000  1
  C  C2253  1  0.61217000  0.45160000  0.11217000  1
  C  C2254  1  0.95546000  0.87375000  0.95546000  1
  C  C2255  1  0.98199000  0.87080000  0.98199000  1
  C  C2256  1  0.03270000  0.86780000  0.03270000  1
  C  C2257  1  0.05940000  0.86750000  0.05940000  1
  C  C2258  1  0.11217000  0.95160000  0.11217000  1
  C  C2259  1  0.95546000  0.37375000  0.45546000  1
  C  C2260  1  0.98199000  0.37080000  0.48199000  1
  C  C2261  1  0.03270000  0.36780000  0.53270000  1
  C  C2262  1  0.05940000  0.36750000  0.55940000  1
  C  C2263  1  0.11217000  0.45160000  0.61217000  1
  C  C2264  1  0.87375000  0.45546000  0.45546000  1
  C  C2265  1  0.87080000  0.48199000  0.48199000  1
  C  C2266  1  0.86780000  0.53270000  0.53270000  1
  C  C2267  1  0.86750000  0.55940000  0.55940000  1
  C  C2268  1  0.95160000  0.61217000  0.61217000  1
  C  C2269  1  0.87375000  0.95546000  0.95546000  1
  C  C2270  1  0.87080000  0.98199000  0.98199000  1
  C  C2271  1  0.86780000  0.03270000  0.03270000  1
  C  C2272  1  0.86750000  0.05940000  0.05940000  1
  C  C2273  1  0.95160000  0.11217000  0.11217000  1
  C  C2274  1  0.37375000  0.45546000  0.95546000  1
  C  C2275  1  0.37080000  0.48199000  0.98199000  1
  C  C2276  1  0.36780000  0.53270000  0.03270000  1
  C  C2277  1  0.36750000  0.55940000  0.05940000  1
  C  C2278  1  0.45160000  0.61217000  0.11217000  1
  C  C2279  1  0.37375000  0.95546000  0.45546000  1
  C  C2280  1  0.37080000  0.98199000  0.48199000  1
  C  C2281  1  0.36780000  0.03270000  0.53270000  1
  C  C2282  1  0.36750000  0.05940000  0.55940000  1
  C  C2283  1  0.45160000  0.11217000  0.61217000  1
  C  C2284  1  0.37625000  0.95546000  0.29454000  1
  C  C2285  1  0.37920000  0.98199000  0.26801000  1
  C  C2286  1  0.38220000  0.03270000  0.21730000  1
  C  C2287  1  0.38250000  0.05940000  0.19060000  1
  C  C2288  1  0.29840000  0.11217000  0.13783000  1
  C  C2289  1  0.37625000  0.45546000  0.79454000  1
  C  C2290  1  0.37920000  0.48199000  0.76801000  1
  C  C2291  1  0.38220000  0.53270000  0.71730000  1
  C  C2292  1  0.38250000  0.55940000  0.69060000  1
  C  C2293  1  0.29840000  0.61217000  0.63783000  1
  C  C2294  1  0.87625000  0.79454000  0.95546000  1
  C  C2295  1  0.87920000  0.76801000  0.98199000  1
  C  C2296  1  0.88220000  0.71730000  0.03270000  1
  C  C2297  1  0.88250000  0.69060000  0.05940000  1
  C  C2298  1  0.79840000  0.63783000  0.11217000  1
  C  C2299  1  0.87625000  0.29454000  0.45546000  1
  C  C2300  1  0.87920000  0.26801000  0.48199000  1
  C  C2301  1  0.88220000  0.21730000  0.53270000  1
  C  C2302  1  0.88250000  0.19060000  0.55940000  1
  C  C2303  1  0.79840000  0.13783000  0.61217000  1
  C  C2304  1  0.37375000  0.29454000  0.79454000  1
  C  C2305  1  0.37080000  0.26801000  0.76801000  1
  C  C2306  1  0.36780000  0.21730000  0.71730000  1
  C  C2307  1  0.36750000  0.19060000  0.69060000  1
  C  C2308  1  0.45160000  0.13783000  0.63783000  1
  C  C2309  1  0.87375000  0.29454000  0.29454000  1
  C  C2310  1  0.87080000  0.26801000  0.26801000  1
  C  C2311  1  0.86780000  0.21730000  0.21730000  1
  C  C2312  1  0.86750000  0.19060000  0.19060000  1
  C  C2313  1  0.95160000  0.13783000  0.13783000  1
  C  C2314  1  0.95546000  0.29454000  0.37625000  1
  C  C2315  1  0.98199000  0.26801000  0.37920000  1
  C  C2316  1  0.03270000  0.21730000  0.38220000  1
  C  C2317  1  0.05940000  0.19060000  0.38250000  1
  C  C2318  1  0.11217000  0.13783000  0.29840000  1
  C  C2319  1  0.45546000  0.29454000  0.87625000  1
  C  C2320  1  0.48199000  0.26801000  0.87920000  1
  C  C2321  1  0.53270000  0.21730000  0.88220000  1
  C  C2322  1  0.55940000  0.19060000  0.88250000  1
  C  C2323  1  0.61217000  0.13783000  0.79840000  1
  C  C2324  1  0.45546000  0.45546000  0.87375000  1
  C  C2325  1  0.48199000  0.48199000  0.87080000  1
  C  C2326  1  0.53270000  0.53270000  0.86780000  1
  C  C2327  1  0.55940000  0.55940000  0.86750000  1
  C  C2328  1  0.61217000  0.61217000  0.95160000  1
  C  C2329  1  0.45546000  0.95546000  0.37375000  1
  C  C2330  1  0.48199000  0.98199000  0.37080000  1
  C  C2331  1  0.53270000  0.03270000  0.36780000  1
  C  C2332  1  0.55940000  0.05940000  0.36750000  1
  C  C2333  1  0.61217000  0.11217000  0.45160000  1
  C  C2334  1  0.95546000  0.45546000  0.37375000  1
  C  C2335  1  0.98199000  0.48199000  0.37080000  1
  C  C2336  1  0.03270000  0.53270000  0.36780000  1
  C  C2337  1  0.05940000  0.55940000  0.36750000  1
  C  C2338  1  0.11217000  0.61217000  0.45160000  1
  C  C2339  1  0.95546000  0.95546000  0.87375000  1
  C  C2340  1  0.98199000  0.98199000  0.87080000  1
  C  C2341  1  0.03270000  0.03270000  0.86780000  1
  C  C2342  1  0.05940000  0.05940000  0.86750000  1
  C  C2343  1  0.11217000  0.11217000  0.95160000  1
  C  C2344  1  0.29454000  0.79454000  0.37375000  1
  C  C2345  1  0.26801000  0.76801000  0.37080000  1
  C  C2346  1  0.21730000  0.71730000  0.36780000  1
  C  C2347  1  0.19060000  0.69060000  0.36750000  1
  C  C2348  1  0.13783000  0.63783000  0.45160000  1
  C  C2349  1  0.29454000  0.29454000  0.87375000  1
  C  C2350  1  0.26801000  0.26801000  0.87080000  1
  C  C2351  1  0.21730000  0.21730000  0.86780000  1
  C  C2352  1  0.19060000  0.19060000  0.86750000  1
  C  C2353  1  0.13783000  0.13783000  0.95160000  1
  C  C2354  1  0.79454000  0.95546000  0.87625000  1
  C  C2355  1  0.76801000  0.98199000  0.87920000  1
  C  C2356  1  0.71730000  0.03270000  0.88220000  1
  C  C2357  1  0.69060000  0.05940000  0.88250000  1
  C  C2358  1  0.63783000  0.11217000  0.79840000  1
  C  C2359  1  0.79454000  0.45546000  0.37625000  1
  C  C2360  1  0.76801000  0.48199000  0.37920000  1
  C  C2361  1  0.71730000  0.53270000  0.38220000  1
  C  C2362  1  0.69060000  0.55940000  0.38250000  1
  C  C2363  1  0.63783000  0.61217000  0.29840000  1
  C  C2364  1  0.87625000  0.95546000  0.79454000  1
  C  C2365  1  0.87920000  0.98199000  0.76801000  1
  C  C2366  1  0.88220000  0.03270000  0.71730000  1
  C  C2367  1  0.88250000  0.05940000  0.69060000  1
  C  C2368  1  0.79840000  0.11217000  0.63783000  1
  C  C2369  1  0.87625000  0.45546000  0.29454000  1
  C  C2370  1  0.87920000  0.48199000  0.26801000  1
  C  C2371  1  0.88220000  0.53270000  0.21730000  1
  C  C2372  1  0.88250000  0.55940000  0.19060000  1
  C  C2373  1  0.79840000  0.61217000  0.13783000  1
  C  C2374  1  0.37375000  0.79454000  0.29454000  1
  C  C2375  1  0.37080000  0.76801000  0.26801000  1
  C  C2376  1  0.36780000  0.71730000  0.21730000  1
  C  C2377  1  0.36750000  0.69060000  0.19060000  1
  C  C2378  1  0.45160000  0.63783000  0.13783000  1
  C  C2379  1  0.87375000  0.79454000  0.79454000  1
  C  C2380  1  0.87080000  0.76801000  0.76801000  1
  C  C2381  1  0.86780000  0.71730000  0.71730000  1
  C  C2382  1  0.86750000  0.69060000  0.69060000  1
  C  C2383  1  0.95160000  0.63783000  0.63783000  1
  C  C2384  1  0.37625000  0.29454000  0.95546000  1
  C  C2385  1  0.37920000  0.26801000  0.98199000  1
  C  C2386  1  0.38220000  0.21730000  0.03270000  1
  C  C2387  1  0.38250000  0.19060000  0.05940000  1
  C  C2388  1  0.29840000  0.13783000  0.11217000  1
  C  C2389  1  0.37625000  0.79454000  0.45546000  1
  C  C2390  1  0.37920000  0.76801000  0.48199000  1
  C  C2391  1  0.38220000  0.71730000  0.53270000  1
  C  C2392  1  0.38250000  0.69060000  0.55940000  1
  C  C2393  1  0.29840000  0.63783000  0.61217000  1
  C  C2394  1  0.79454000  0.87625000  0.95546000  1
  C  C2395  1  0.76801000  0.87920000  0.98199000  1
  C  C2396  1  0.71730000  0.88220000  0.03270000  1
  C  C2397  1  0.69060000  0.88250000  0.05940000  1
  C  C2398  1  0.63783000  0.79840000  0.11217000  1
  C  C2399  1  0.79454000  0.37625000  0.45546000  1
  C  C2400  1  0.76801000  0.37920000  0.48199000  1
  C  C2401  1  0.71730000  0.38220000  0.53270000  1
  C  C2402  1  0.69060000  0.38250000  0.55940000  1
  C  C2403  1  0.63783000  0.29840000  0.61217000  1
  C  C2404  1  0.29454000  0.37375000  0.79454000  1
  C  C2405  1  0.26801000  0.37080000  0.76801000  1
  C  C2406  1  0.21730000  0.36780000  0.71730000  1
  C  C2407  1  0.19060000  0.36750000  0.69060000  1
  C  C2408  1  0.13783000  0.45160000  0.63783000  1
  C  C2409  1  0.29454000  0.87375000  0.29454000  1
  C  C2410  1  0.26801000  0.87080000  0.26801000  1
  C  C2411  1  0.21730000  0.86780000  0.21730000  1
  C  C2412  1  0.19060000  0.86750000  0.19060000  1
  C  C2413  1  0.13783000  0.95160000  0.13783000  1
  C  C2414  1  0.95546000  0.37625000  0.29454000  1
  C  C2415  1  0.98199000  0.37920000  0.26801000  1
  C  C2416  1  0.03270000  0.38220000  0.21730000  1
  C  C2417  1  0.05940000  0.38250000  0.19060000  1
  C  C2418  1  0.11217000  0.29840000  0.13783000  1
  C  C2419  1  0.45546000  0.37625000  0.79454000  1
  C  C2420  1  0.48199000  0.37920000  0.76801000  1
  C  C2421  1  0.53270000  0.38220000  0.71730000  1
  C  C2422  1  0.55940000  0.38250000  0.69060000  1
  C  C2423  1  0.61217000  0.29840000  0.63783000  1
  C  C2424  1  0.95546000  0.79454000  0.87625000  1
  C  C2425  1  0.98199000  0.76801000  0.87920000  1
  C  C2426  1  0.03270000  0.71730000  0.88220000  1
  C  C2427  1  0.05940000  0.69060000  0.88250000  1
  C  C2428  1  0.11217000  0.63783000  0.79840000  1
  C  C2429  1  0.45546000  0.79454000  0.37625000  1
  C  C2430  1  0.48199000  0.76801000  0.37920000  1
  C  C2431  1  0.53270000  0.71730000  0.38220000  1
  C  C2432  1  0.55940000  0.69060000  0.38250000  1
  C  C2433  1  0.61217000  0.63783000  0.29840000  1
  C  C2434  1  0.79454000  0.29454000  0.37375000  1
  C  C2435  1  0.76801000  0.26801000  0.37080000  1
  C  C2436  1  0.71730000  0.21730000  0.36780000  1
  C  C2437  1  0.69060000  0.19060000  0.36750000  1
  C  C2438  1  0.63783000  0.13783000  0.45160000  1
  C  C2439  1  0.79454000  0.79454000  0.87375000  1
  C  C2440  1  0.76801000  0.76801000  0.87080000  1
  C  C2441  1  0.71730000  0.71730000  0.86780000  1
  C  C2442  1  0.69060000  0.69060000  0.86750000  1
  C  C2443  1  0.63783000  0.63783000  0.95160000  1
  C  C2444  1  0.29454000  0.95546000  0.37625000  1
  C  C2445  1  0.26801000  0.98199000  0.37920000  1
  C  C2446  1  0.21730000  0.03270000  0.38220000  1
  C  C2447  1  0.19060000  0.05940000  0.38250000  1
  C  C2448  1  0.13783000  0.11217000  0.29840000  1
  C  C2449  1  0.29454000  0.45546000  0.87625000  1
  C  C2450  1  0.26801000  0.48199000  0.87920000  1
  C  C2451  1  0.21730000  0.53270000  0.88220000  1
  C  C2452  1  0.19060000  0.55940000  0.88250000  1
  C  C2453  1  0.13783000  0.61217000  0.79840000  1
  C  C2454  1  0.20546000  0.62625000  0.70546000  1
  C  C2455  1  0.23199000  0.62920000  0.73199000  1
  C  C2456  1  0.28270000  0.63220000  0.78270000  1
  C  C2457  1  0.30940000  0.63250000  0.80940000  1
  C  C2458  1  0.36217000  0.54840000  0.86217000  1
  C  C2459  1  0.20546000  0.12625000  0.20546000  1
  C  C2460  1  0.23199000  0.12920000  0.23199000  1
  C  C2461  1  0.28270000  0.13220000  0.28270000  1
  C  C2462  1  0.30940000  0.13250000  0.30940000  1
  C  C2463  1  0.36217000  0.04840000  0.36217000  1
  C  C2464  1  0.04454000  0.12375000  0.20546000  1
  C  C2465  1  0.01801000  0.12080000  0.23199000  1
  C  C2466  1  0.96730000  0.11780000  0.28270000  1
  C  C2467  1  0.94060000  0.11750000  0.30940000  1
  C  C2468  1  0.88783000  0.20160000  0.36217000  1
  C  C2469  1  0.54454000  0.12375000  0.70546000  1
  C  C2470  1  0.51801000  0.12080000  0.73199000  1
  C  C2471  1  0.46730000  0.11780000  0.78270000  1
  C  C2472  1  0.44060000  0.11750000  0.80940000  1
  C  C2473  1  0.38783000  0.20160000  0.86217000  1
  C  C2474  1  0.70546000  0.62375000  0.04454000  1
  C  C2475  1  0.73199000  0.62080000  0.01801000  1
  C  C2476  1  0.78270000  0.61780000  0.96730000  1
  C  C2477  1  0.80940000  0.61750000  0.94060000  1
  C  C2478  1  0.86217000  0.70160000  0.88783000  1
  C  C2479  1  0.70546000  0.12375000  0.54454000  1
  C  C2480  1  0.73199000  0.12080000  0.51801000  1
  C  C2481  1  0.78270000  0.11780000  0.46730000  1
  C  C2482  1  0.80940000  0.11750000  0.44060000  1
  C  C2483  1  0.86217000  0.20160000  0.38783000  1
  C  C2484  1  0.62375000  0.04454000  0.70546000  1
  C  C2485  1  0.62080000  0.01801000  0.73199000  1
  C  C2486  1  0.61780000  0.96730000  0.78270000  1
  C  C2487  1  0.61750000  0.94060000  0.80940000  1
  C  C2488  1  0.70160000  0.88783000  0.86217000  1
  C  C2489  1  0.62375000  0.54454000  0.20546000  1
  C  C2490  1  0.62080000  0.51801000  0.23199000  1
  C  C2491  1  0.61780000  0.46730000  0.28270000  1
  C  C2492  1  0.61750000  0.44060000  0.30940000  1
  C  C2493  1  0.70160000  0.38783000  0.36217000  1
  C  C2494  1  0.12375000  0.20546000  0.04454000  1
  C  C2495  1  0.12080000  0.23199000  0.01801000  1
  C  C2496  1  0.11780000  0.28270000  0.96730000  1
  C  C2497  1  0.11750000  0.30940000  0.94060000  1
  C  C2498  1  0.20160000  0.36217000  0.88783000  1
  C  C2499  1  0.12375000  0.70546000  0.54454000  1
  C  C2500  1  0.12080000  0.73199000  0.51801000  1
  C  C2501  1  0.11780000  0.78270000  0.46730000  1
  C  C2502  1  0.11750000  0.80940000  0.44060000  1
  C  C2503  1  0.20160000  0.86217000  0.38783000  1
  C  C2504  1  0.62625000  0.70546000  0.20546000  1
  C  C2505  1  0.62920000  0.73199000  0.23199000  1
  C  C2506  1  0.63220000  0.78270000  0.28270000  1
  C  C2507  1  0.63250000  0.80940000  0.30940000  1
  C  C2508  1  0.54840000  0.86217000  0.36217000  1
  C  C2509  1  0.12625000  0.70546000  0.70546000  1
  C  C2510  1  0.12920000  0.73199000  0.73199000  1
  C  C2511  1  0.13220000  0.78270000  0.78270000  1
  C  C2512  1  0.13250000  0.80940000  0.80940000  1
  C  C2513  1  0.04840000  0.86217000  0.86217000  1
  C  C2514  1  0.04454000  0.70546000  0.62375000  1
  C  C2515  1  0.01801000  0.73199000  0.62080000  1
  C  C2516  1  0.96730000  0.78270000  0.61780000  1
  C  C2517  1  0.94060000  0.80940000  0.61750000  1
  C  C2518  1  0.88783000  0.86217000  0.70160000  1
  C  C2519  1  0.54454000  0.70546000  0.12375000  1
  C  C2520  1  0.51801000  0.73199000  0.12080000  1
  C  C2521  1  0.46730000  0.78270000  0.11780000  1
  C  C2522  1  0.44060000  0.80940000  0.11750000  1
  C  C2523  1  0.38783000  0.86217000  0.20160000  1
  C  C2524  1  0.70546000  0.20546000  0.62625000  1
  C  C2525  1  0.73199000  0.23199000  0.62920000  1
  C  C2526  1  0.78270000  0.28270000  0.63220000  1
  C  C2527  1  0.80940000  0.30940000  0.63250000  1
  C  C2528  1  0.86217000  0.36217000  0.54840000  1
  C  C2529  1  0.70546000  0.70546000  0.12625000  1
  C  C2530  1  0.73199000  0.73199000  0.12920000  1
  C  C2531  1  0.78270000  0.78270000  0.13220000  1
  C  C2532  1  0.80940000  0.80940000  0.13250000  1
  C  C2533  1  0.86217000  0.86217000  0.04840000  1
  C  C2534  1  0.20546000  0.04454000  0.12375000  1
  C  C2535  1  0.23199000  0.01801000  0.12080000  1
  C  C2536  1  0.28270000  0.96730000  0.11780000  1
  C  C2537  1  0.30940000  0.94060000  0.11750000  1
  C  C2538  1  0.36217000  0.88783000  0.20160000  1
  C  C2539  1  0.20546000  0.54454000  0.62375000  1
  C  C2540  1  0.23199000  0.51801000  0.62080000  1
  C  C2541  1  0.28270000  0.46730000  0.61780000  1
  C  C2542  1  0.30940000  0.44060000  0.61750000  1
  C  C2543  1  0.36217000  0.38783000  0.70160000  1
  O  O2544  1  0.12399000  0.07535000  0.21562000  1
  O  O2545  1  0.12399000  0.57535000  0.71562000  1
  O  O2546  1  0.62399000  0.07535000  0.71562000  1
  O  O2547  1  0.62399000  0.57535000  0.21562000  1
  O  O2548  1  0.62601000  0.17465000  0.71562000  1
  O  O2549  1  0.62601000  0.67465000  0.21562000  1
  O  O2550  1  0.12601000  0.17465000  0.21562000  1
  O  O2551  1  0.12601000  0.67465000  0.71562000  1
  O  O2552  1  0.12601000  0.57535000  0.53438000  1
  O  O2553  1  0.12601000  0.07535000  0.03438000  1
  O  O2554  1  0.62601000  0.57535000  0.03438000  1
  O  O2555  1  0.62601000  0.07535000  0.53438000  1
  O  O2556  1  0.62399000  0.67465000  0.03438000  1
  O  O2557  1  0.62399000  0.17465000  0.53438000  1
  O  O2558  1  0.12399000  0.67465000  0.53438000  1
  O  O2559  1  0.12399000  0.17465000  0.03438000  1
  O  O2560  1  0.21562000  0.12399000  0.07535000  1
  O  O2561  1  0.21562000  0.62399000  0.57535000  1
  O  O2562  1  0.71562000  0.12399000  0.57535000  1
  O  O2563  1  0.71562000  0.62399000  0.07535000  1
  O  O2564  1  0.71562000  0.62601000  0.17465000  1
  O  O2565  1  0.71562000  0.12601000  0.67465000  1
  O  O2566  1  0.21562000  0.62601000  0.67465000  1
  O  O2567  1  0.21562000  0.12601000  0.17465000  1
  O  O2568  1  0.53438000  0.12601000  0.57535000  1
  O  O2569  1  0.53438000  0.62601000  0.07535000  1
  O  O2570  1  0.03438000  0.12601000  0.07535000  1
  O  O2571  1  0.03438000  0.62601000  0.57535000  1
  O  O2572  1  0.03438000  0.62399000  0.67465000  1
  O  O2573  1  0.03438000  0.12399000  0.17465000  1
  O  O2574  1  0.53438000  0.62399000  0.17465000  1
  O  O2575  1  0.53438000  0.12399000  0.67465000  1
  O  O2576  1  0.07535000  0.21562000  0.12399000  1
  O  O2577  1  0.07535000  0.71562000  0.62399000  1
  O  O2578  1  0.57535000  0.21562000  0.62399000  1
  O  O2579  1  0.57535000  0.71562000  0.12399000  1
  O  O2580  1  0.17465000  0.71562000  0.62601000  1
  O  O2581  1  0.17465000  0.21562000  0.12601000  1
  O  O2582  1  0.67465000  0.71562000  0.12601000  1
  O  O2583  1  0.67465000  0.21562000  0.62601000  1
  O  O2584  1  0.57535000  0.53438000  0.12601000  1
  O  O2585  1  0.57535000  0.03438000  0.62601000  1
  O  O2586  1  0.07535000  0.53438000  0.62601000  1
  O  O2587  1  0.07535000  0.03438000  0.12601000  1
  O  O2588  1  0.67465000  0.03438000  0.62399000  1
  O  O2589  1  0.67465000  0.53438000  0.12399000  1
  O  O2590  1  0.17465000  0.03438000  0.12399000  1
  O  O2591  1  0.17465000  0.53438000  0.62399000  1
  O  O2592  1  0.82535000  0.37399000  0.28438000  1
  O  O2593  1  0.82535000  0.87399000  0.78438000  1
  O  O2594  1  0.32535000  0.37399000  0.78438000  1
  O  O2595  1  0.32535000  0.87399000  0.28438000  1
  O  O2596  1  0.92465000  0.87601000  0.78438000  1
  O  O2597  1  0.92465000  0.37601000  0.28438000  1
  O  O2598  1  0.42465000  0.87601000  0.28438000  1
  O  O2599  1  0.42465000  0.37601000  0.78438000  1
  O  O2600  1  0.32535000  0.37601000  0.96562000  1
  O  O2601  1  0.32535000  0.87601000  0.46562000  1
  O  O2602  1  0.82535000  0.37601000  0.46562000  1
  O  O2603  1  0.82535000  0.87601000  0.96562000  1
  O  O2604  1  0.42465000  0.87399000  0.46562000  1
  O  O2605  1  0.42465000  0.37399000  0.96562000  1
  O  O2606  1  0.92465000  0.87399000  0.96562000  1
  O  O2607  1  0.92465000  0.37399000  0.46562000  1
  O  O2608  1  0.87399000  0.46562000  0.42465000  1
  O  O2609  1  0.87399000  0.96562000  0.92465000  1
  O  O2610  1  0.37399000  0.46562000  0.92465000  1
  O  O2611  1  0.37399000  0.96562000  0.42465000  1
  O  O2612  1  0.37601000  0.96562000  0.32535000  1
  O  O2613  1  0.37601000  0.46562000  0.82535000  1
  O  O2614  1  0.87601000  0.96562000  0.82535000  1
  O  O2615  1  0.87601000  0.46562000  0.32535000  1
  O  O2616  1  0.87601000  0.78438000  0.92465000  1
  O  O2617  1  0.87601000  0.28438000  0.42465000  1
  O  O2618  1  0.37601000  0.78438000  0.42465000  1
  O  O2619  1  0.37601000  0.28438000  0.92465000  1
  O  O2620  1  0.37399000  0.28438000  0.82535000  1
  O  O2621  1  0.37399000  0.78438000  0.32535000  1
  O  O2622  1  0.87399000  0.28438000  0.32535000  1
  O  O2623  1  0.87399000  0.78438000  0.82535000  1
  O  O2624  1  0.96562000  0.32535000  0.37601000  1
  O  O2625  1  0.96562000  0.82535000  0.87601000  1
  O  O2626  1  0.46562000  0.32535000  0.87601000  1
  O  O2627  1  0.46562000  0.82535000  0.37601000  1
  O  O2628  1  0.46562000  0.42465000  0.87399000  1
  O  O2629  1  0.46562000  0.92465000  0.37399000  1
  O  O2630  1  0.96562000  0.42465000  0.37399000  1
  O  O2631  1  0.96562000  0.92465000  0.87399000  1
  O  O2632  1  0.28438000  0.82535000  0.37399000  1
  O  O2633  1  0.28438000  0.32535000  0.87399000  1
  O  O2634  1  0.78438000  0.82535000  0.87399000  1
  O  O2635  1  0.78438000  0.32535000  0.37399000  1
  O  O2636  1  0.78438000  0.92465000  0.87601000  1
  O  O2637  1  0.78438000  0.42465000  0.37601000  1
  O  O2638  1  0.28438000  0.92465000  0.37601000  1
  O  O2639  1  0.28438000  0.42465000  0.87601000  1
  O  O2640  1  0.87601000  0.92465000  0.78438000  1
  O  O2641  1  0.87601000  0.42465000  0.28438000  1
  O  O2642  1  0.37601000  0.92465000  0.28438000  1
  O  O2643  1  0.37601000  0.42465000  0.78438000  1
  O  O2644  1  0.37399000  0.82535000  0.28438000  1
  O  O2645  1  0.37399000  0.32535000  0.78438000  1
  O  O2646  1  0.87399000  0.82535000  0.78438000  1
  O  O2647  1  0.87399000  0.32535000  0.28438000  1
  O  O2648  1  0.87399000  0.42465000  0.46562000  1
  O  O2649  1  0.87399000  0.92465000  0.96562000  1
  O  O2650  1  0.37399000  0.42465000  0.96562000  1
  O  O2651  1  0.37399000  0.92465000  0.46562000  1
  O  O2652  1  0.37601000  0.32535000  0.96562000  1
  O  O2653  1  0.37601000  0.82535000  0.46562000  1
  O  O2654  1  0.87601000  0.32535000  0.46562000  1
  O  O2655  1  0.87601000  0.82535000  0.96562000  1
  O  O2656  1  0.78438000  0.87601000  0.92465000  1
  O  O2657  1  0.78438000  0.37601000  0.42465000  1
  O  O2658  1  0.28438000  0.87601000  0.42465000  1
  O  O2659  1  0.28438000  0.37601000  0.92465000  1
  O  O2660  1  0.28438000  0.37399000  0.82535000  1
  O  O2661  1  0.28438000  0.87399000  0.32535000  1
  O  O2662  1  0.78438000  0.37399000  0.32535000  1
  O  O2663  1  0.78438000  0.87399000  0.82535000  1
  O  O2664  1  0.46562000  0.87399000  0.42465000  1
  O  O2665  1  0.46562000  0.37399000  0.92465000  1
  O  O2666  1  0.96562000  0.87399000  0.92465000  1
  O  O2667  1  0.96562000  0.37399000  0.42465000  1
  O  O2668  1  0.96562000  0.37601000  0.32535000  1
  O  O2669  1  0.96562000  0.87601000  0.82535000  1
  O  O2670  1  0.46562000  0.37601000  0.82535000  1
  O  O2671  1  0.46562000  0.87601000  0.32535000  1
  O  O2672  1  0.92465000  0.78438000  0.87601000  1
  O  O2673  1  0.92465000  0.28438000  0.37601000  1
  O  O2674  1  0.42465000  0.78438000  0.37601000  1
  O  O2675  1  0.42465000  0.28438000  0.87601000  1
  O  O2676  1  0.82535000  0.28438000  0.37399000  1
  O  O2677  1  0.82535000  0.78438000  0.87399000  1
  O  O2678  1  0.32535000  0.28438000  0.87399000  1
  O  O2679  1  0.32535000  0.78438000  0.37399000  1
  O  O2680  1  0.42465000  0.46562000  0.87399000  1
  O  O2681  1  0.42465000  0.96562000  0.37399000  1
  O  O2682  1  0.92465000  0.46562000  0.37399000  1
  O  O2683  1  0.92465000  0.96562000  0.87399000  1
  O  O2684  1  0.32535000  0.96562000  0.37601000  1
  O  O2685  1  0.32535000  0.46562000  0.87601000  1
  O  O2686  1  0.82535000  0.96562000  0.87601000  1
  O  O2687  1  0.82535000  0.46562000  0.37601000  1
  O  O2688  1  0.17465000  0.62601000  0.71562000  1
  O  O2689  1  0.17465000  0.12601000  0.21562000  1
  O  O2690  1  0.67465000  0.62601000  0.21562000  1
  O  O2691  1  0.67465000  0.12601000  0.71562000  1
  O  O2692  1  0.07535000  0.12399000  0.21562000  1
  O  O2693  1  0.07535000  0.62399000  0.71562000  1
  O  O2694  1  0.57535000  0.12399000  0.71562000  1
  O  O2695  1  0.57535000  0.62399000  0.21562000  1
  O  O2696  1  0.67465000  0.62399000  0.03438000  1
  O  O2697  1  0.67465000  0.12399000  0.53438000  1
  O  O2698  1  0.17465000  0.62399000  0.53438000  1
  O  O2699  1  0.17465000  0.12399000  0.03438000  1
  O  O2700  1  0.57535000  0.12601000  0.53438000  1
  O  O2701  1  0.57535000  0.62601000  0.03438000  1
  O  O2702  1  0.07535000  0.12601000  0.03438000  1
  O  O2703  1  0.07535000  0.62601000  0.53438000  1
  O  O2704  1  0.12601000  0.53438000  0.57535000  1
  O  O2705  1  0.12601000  0.03438000  0.07535000  1
  O  O2706  1  0.62601000  0.53438000  0.07535000  1
  O  O2707  1  0.62601000  0.03438000  0.57535000  1
  O  O2708  1  0.62399000  0.03438000  0.67465000  1
  O  O2709  1  0.62399000  0.53438000  0.17465000  1
  O  O2710  1  0.12399000  0.03438000  0.17465000  1
  O  O2711  1  0.12399000  0.53438000  0.67465000  1
  O  O2712  1  0.12399000  0.21562000  0.07535000  1
  O  O2713  1  0.12399000  0.71562000  0.57535000  1
  O  O2714  1  0.62399000  0.21562000  0.57535000  1
  O  O2715  1  0.62399000  0.71562000  0.07535000  1
  O  O2716  1  0.62601000  0.71562000  0.17465000  1
  O  O2717  1  0.62601000  0.21562000  0.67465000  1
  O  O2718  1  0.12601000  0.71562000  0.67465000  1
  O  O2719  1  0.12601000  0.21562000  0.17465000  1
  O  O2720  1  0.03438000  0.67465000  0.62399000  1
  O  O2721  1  0.03438000  0.17465000  0.12399000  1
  O  O2722  1  0.53438000  0.67465000  0.12399000  1
  O  O2723  1  0.53438000  0.17465000  0.62399000  1
  O  O2724  1  0.53438000  0.57535000  0.12601000  1
  O  O2725  1  0.53438000  0.07535000  0.62601000  1
  O  O2726  1  0.03438000  0.57535000  0.62601000  1
  O  O2727  1  0.03438000  0.07535000  0.12601000  1
  O  O2728  1  0.71562000  0.17465000  0.62601000  1
  O  O2729  1  0.71562000  0.67465000  0.12601000  1
  O  O2730  1  0.21562000  0.17465000  0.12601000  1
  O  O2731  1  0.21562000  0.67465000  0.62601000  1
  O  O2732  1  0.21562000  0.07535000  0.12399000  1
  O  O2733  1  0.21562000  0.57535000  0.62399000  1
  O  O2734  1  0.71562000  0.07535000  0.62399000  1
  O  O2735  1  0.71562000  0.57535000  0.12399000  1
  O  O2736  1  0.15973000  0.09027000  0.15973000  1
  O  O2737  1  0.59027000  0.15973000  0.65973000  1
  O  O2738  1  0.09027000  0.59027000  0.59027000  1
  O  O2739  1  0.09027000  0.09027000  0.09027000  1
  O  O2740  1  0.65973000  0.65973000  0.09027000  1
  O  O2741  1  0.15973000  0.15973000  0.09027000  1
  O  O2742  1  0.65973000  0.59027000  0.15973000  1
  O  O2743  1  0.59027000  0.09027000  0.59027000  1
  O  O2744  1  0.09027000  0.65973000  0.65973000  1
  O  O2745  1  0.09027000  0.15973000  0.15973000  1
  O  O2746  1  0.15973000  0.65973000  0.59027000  1
  O  O2747  1  0.59027000  0.59027000  0.09027000  1
  O  O2748  1  0.65973000  0.09027000  0.65973000  1
  O  O2749  1  0.84027000  0.40973000  0.34027000  1
  O  O2750  1  0.90973000  0.84027000  0.84027000  1
  O  O2751  1  0.34027000  0.34027000  0.90973000  1
  O  O2752  1  0.40973000  0.90973000  0.40973000  1
  O  O2753  1  0.90973000  0.40973000  0.40973000  1
  O  O2754  1  0.90973000  0.90973000  0.90973000  1
  O  O2755  1  0.34027000  0.90973000  0.34027000  1
  O  O2756  1  0.84027000  0.84027000  0.90973000  1
  O  O2757  1  0.40973000  0.34027000  0.84027000  1
  O  O2758  1  0.90973000  0.34027000  0.34027000  1
  O  O2759  1  0.40973000  0.40973000  0.90973000  1
  O  O2760  1  0.34027000  0.84027000  0.40973000  1
  O  O2761  1  0.84027000  0.90973000  0.84027000  1
  O  O2762  1  0.40973000  0.84027000  0.34027000  1
  O  O2763  1  0.34027000  0.40973000  0.84027000  1
  O  O2764  1  0.84027000  0.34027000  0.40973000  1
  O  O2765  1  0.15973000  0.59027000  0.65973000  1
  O  O2766  1  0.59027000  0.65973000  0.15973000  1
  O  O2767  1  0.65973000  0.15973000  0.59027000  1
  O  O2768  1  0.09751000  0.09751000  0.15249000  1
  O  O2769  1  0.65249000  0.15249000  0.65249000  1
  O  O2770  1  0.15249000  0.59751000  0.59751000  1
  O  O2771  1  0.59751000  0.65249000  0.09751000  1
  O  O2772  1  0.09751000  0.15249000  0.09751000  1
  O  O2773  1  0.15249000  0.09751000  0.09751000  1
  O  O2774  1  0.65249000  0.65249000  0.15249000  1
  O  O2775  1  0.59751000  0.15249000  0.59751000  1
  O  O2776  1  0.09751000  0.59751000  0.65249000  1
  O  O2777  1  0.15249000  0.65249000  0.65249000  1
  O  O2778  1  0.15249000  0.15249000  0.15249000  1
  O  O2779  1  0.59751000  0.59751000  0.15249000  1
  O  O2780  1  0.65249000  0.09751000  0.59751000  1
  O  O2781  1  0.84751000  0.34751000  0.34751000  1
  O  O2782  1  0.84751000  0.84751000  0.84751000  1
  O  O2783  1  0.90249000  0.90249000  0.84751000  1
  O  O2784  1  0.34751000  0.40249000  0.90249000  1
  O  O2785  1  0.40249000  0.84751000  0.40249000  1
  O  O2786  1  0.84751000  0.40249000  0.40249000  1
  O  O2787  1  0.40249000  0.90249000  0.34751000  1
  O  O2788  1  0.90249000  0.84751000  0.90249000  1
  O  O2789  1  0.34751000  0.34751000  0.84751000  1
  O  O2790  1  0.90249000  0.34751000  0.40249000  1
  O  O2791  1  0.40249000  0.40249000  0.84751000  1
  O  O2792  1  0.34751000  0.84751000  0.34751000  1
  O  O2793  1  0.84751000  0.90249000  0.90249000  1
  O  O2794  1  0.40249000  0.34751000  0.90249000  1
  O  O2795  1  0.90249000  0.40249000  0.34751000  1
  O  O2796  1  0.34751000  0.90249000  0.40249000  1
  O  O2797  1  0.65249000  0.59751000  0.09751000  1
  O  O2798  1  0.59751000  0.09751000  0.65249000  1
  O  O2799  1  0.09751000  0.65249000  0.59751000  1
