# generated using pymatgen
data_Zr15H32C84(S7O43)2
_symmetry_space_group_name_H-M   'P 1'
_cell_length_a   46.48824368
_cell_length_b   46.48824368
_cell_length_c   46.48824368
_cell_angle_alpha   109.47122063
_cell_angle_beta   109.47122063
_cell_angle_gamma   109.47122063
_symmetry_Int_Tables_number   1
_chemical_formula_structural   Zr15H32C84(S7O43)2
_chemical_formula_sum   'Zr180 H384 C1008 S168 O1032'
_cell_volume   77340.59801600
_cell_formula_units_Z   12
loop_
 _symmetry_equiv_pos_site_id
 _symmetry_equiv_pos_as_xyz
  1  'x, y, z'
loop_
 _atom_site_type_symbol
 _atom_site_label
 _atom_site_symmetry_multiplicity
 _atom_site_fract_x
 _atom_site_fract_y
 _atom_site_fract_z
 _atom_site_occupancy
  C  C0  1  0.77282000  0.23810000  0.29842000  1
  C  C1  1  0.78257000  0.25437000  0.33582000  1
  C  C2  1  0.81227000  0.28452000  0.36359000  1
  C  C3  1  0.81227000  0.29149000  0.39608000  1
  C  C4  1  0.78284000  0.26751000  0.39175000  1
  C  C5  1  0.77333000  0.26574000  0.41901000  1
  C  C6  1  0.63675000  0.10291000  0.15398000  1
  C  C7  1  0.59891000  0.08273000  0.14272000  1
  C  C8  1  0.57064000  0.06133000  0.10957000  1
  C  C9  1  0.71173000  0.07050000  0.12813000  1
  C  C10  1  0.70156000  0.03233000  0.11279000  1
  C  C11  1  0.72056000  0.01847000  0.12495000  1
  C  C12  1  0.84111000  0.21231000  0.27248000  1
  C  C13  1  0.87198000  0.22192000  0.30448000  1
  C  C14  1  0.89370000  0.25410000  0.33400000  1
  C  C15  1  0.69780000  0.11060000  0.22900000  1
  C  C16  1  0.60790000  0.14040000  0.26090000  1
  C  C17  1  0.62880000  0.17340000  0.23680000  1
  C  C18  1  0.64920000  0.18680000  0.21820000  1
  C  C19  1  0.63410000  0.15650000  0.25820000  1
  C  C20  1  0.57790000  0.14460000  0.24370000  1
  C  C21  1  0.22718000  0.52560000  0.46528000  1
  C  C22  1  0.21743000  0.55325000  0.47180000  1
  C  C23  1  0.18773000  0.55132000  0.47225000  1
  C  C24  1  0.18773000  0.58381000  0.47922000  1
  C  C25  1  0.21716000  0.60891000  0.48467000  1
  C  C26  1  0.22667000  0.64568000  0.49241000  1
  C  C27  1  0.36325000  0.51723000  0.46616000  1
  C  C28  1  0.40109000  0.54381000  0.48382000  1
  C  C29  1  0.42936000  0.53893000  0.49069000  1
  C  C30  1  0.28827000  0.41640000  0.35877000  1
  C  C31  1  0.29844000  0.41123000  0.33077000  1
  C  C32  1  0.27944000  0.40439000  0.29791000  1
  C  C33  1  0.15889000  0.43137000  0.37120000  1
  C  C34  1  0.12802000  0.43250000  0.34994000  1
  C  C35  1  0.10630000  0.44030000  0.36040000  1
  C  C36  1  0.30220000  0.53120000  0.41280000  1
  C  C37  1  0.39210000  0.65300000  0.53250000  1
  C  C38  1  0.37120000  0.60800000  0.54460000  1
  C  C39  1  0.35080000  0.56900000  0.53760000  1
  C  C40  1  0.36590000  0.62410000  0.52240000  1
  C  C41  1  0.42210000  0.66580000  0.56670000  1
  C  C42  1  0.06032000  0.76190000  0.53472000  1
  C  C43  1  0.08145000  0.74563000  0.52820000  1
  C  C44  1  0.07907000  0.71548000  0.52775000  1
  C  C45  1  0.10459000  0.70851000  0.52078000  1
  C  C46  1  0.12424000  0.73249000  0.51533000  1
  C  C47  1  0.15327000  0.73426000  0.50759000  1
  C  C48  1  0.05107000  0.89709000  0.53384000  1
  C  C49  1  0.05999000  0.91727000  0.51618000  1
  C  C50  1  0.04824000  0.93867000  0.50931000  1
  C  C51  1  0.05763000  0.92950000  0.64123000  1
  C  C52  1  0.08046000  0.96767000  0.66923000  1
  C  C53  1  0.10648000  0.98153000  0.70209000  1
  C  C54  1  0.06017000  0.78769000  0.62880000  1
  C  C55  1  0.08256000  0.77808000  0.65006000  1
  C  C56  1  0.07990000  0.74590000  0.63960000  1
  C  C57  1  0.11840000  0.88940000  0.58720000  1
  C  C58  1  0.12050000  0.85960000  0.46750000  1
  C  C59  1  0.06340000  0.82660000  0.45540000  1
  C  C60  1  0.03140000  0.81320000  0.46240000  1
  C  C61  1  0.10170000  0.84350000  0.47760000  1
  C  C62  1  0.09910000  0.85540000  0.43330000  1
  C  C63  1  0.93968000  0.47440000  0.70158000  1
  C  C64  1  0.91855000  0.44675000  0.66418000  1
  C  C65  1  0.92093000  0.44868000  0.63641000  1
  C  C66  1  0.89541000  0.41619000  0.60392000  1
  C  C67  1  0.87576000  0.39109000  0.60825000  1
  C  C68  1  0.84673000  0.35432000  0.58099000  1
  C  C69  1  0.94893000  0.48277000  0.84602000  1
  C  C70  1  0.94001000  0.45619000  0.85728000  1
  C  C71  1  0.95176000  0.46107000  0.89043000  1
  C  C72  1  0.94237000  0.58360000  0.87187000  1
  C  C73  1  0.91954000  0.58877000  0.88721000  1
  C  C74  1  0.89352000  0.59561000  0.87505000  1
  C  C75  1  0.93983000  0.56863000  0.72752000  1
  C  C76  1  0.91744000  0.56750000  0.69552000  1
  C  C77  1  0.92010000  0.55970000  0.66600000  1
  C  C78  1  0.88160000  0.46880000  0.77100000  1
  C  C79  1  0.87950000  0.34700000  0.73910000  1
  C  C80  1  0.93660000  0.39200000  0.76320000  1
  C  C81  1  0.96860000  0.43100000  0.78180000  1
  C  C82  1  0.89830000  0.37590000  0.74180000  1
  C  C83  1  0.90090000  0.33420000  0.75630000  1
  C  C84  1  0.47440000  0.70158000  0.93968000  1
  C  C85  1  0.44675000  0.66418000  0.91855000  1
  C  C86  1  0.44868000  0.63641000  0.92093000  1
  C  C87  1  0.41619000  0.60392000  0.89541000  1
  C  C88  1  0.39109000  0.60825000  0.87576000  1
  C  C89  1  0.35432000  0.58099000  0.84673000  1
  C  C90  1  0.48277000  0.84602000  0.94893000  1
  C  C91  1  0.45619000  0.85728000  0.94001000  1
  C  C92  1  0.46107000  0.89043000  0.95176000  1
  C  C93  1  0.58360000  0.87187000  0.94237000  1
  C  C94  1  0.58877000  0.88721000  0.91954000  1
  C  C95  1  0.59561000  0.87505000  0.89352000  1
  C  C96  1  0.56863000  0.72752000  0.93983000  1
  C  C97  1  0.56750000  0.69552000  0.91744000  1
  C  C98  1  0.55970000  0.66600000  0.92010000  1
  C  C99  1  0.46880000  0.77100000  0.88160000  1
  C  C100  1  0.34700000  0.73910000  0.87950000  1
  C  C101  1  0.39200000  0.76320000  0.93660000  1
  C  C102  1  0.43100000  0.78180000  0.96860000  1
  C  C103  1  0.37590000  0.74180000  0.89830000  1
  C  C104  1  0.33420000  0.75630000  0.90090000  1
  C  C105  1  0.76190000  0.53472000  0.06032000  1
  C  C106  1  0.74563000  0.52820000  0.08145000  1
  C  C107  1  0.71548000  0.52775000  0.07907000  1
  C  C108  1  0.70851000  0.52078000  0.10459000  1
  C  C109  1  0.73249000  0.51533000  0.12424000  1
  C  C110  1  0.73426000  0.50759000  0.15327000  1
  C  C111  1  0.89709000  0.53384000  0.05107000  1
  C  C112  1  0.91727000  0.51618000  0.05999000  1
  C  C113  1  0.93867000  0.50931000  0.04824000  1
  C  C114  1  0.92950000  0.64123000  0.05763000  1
  C  C115  1  0.96767000  0.66923000  0.08046000  1
  C  C116  1  0.98153000  0.70209000  0.10648000  1
  C  C117  1  0.78769000  0.62880000  0.06017000  1
  C  C118  1  0.77808000  0.65006000  0.08256000  1
  C  C119  1  0.74590000  0.63960000  0.07990000  1
  C  C120  1  0.88940000  0.58720000  0.11840000  1
  C  C121  1  0.85960000  0.46750000  0.12050000  1
  C  C122  1  0.82660000  0.45540000  0.06340000  1
  C  C123  1  0.81320000  0.46240000  0.03140000  1
  C  C124  1  0.84350000  0.47760000  0.10170000  1
  C  C125  1  0.85540000  0.43330000  0.09910000  1
  C  C126  1  0.52560000  0.46528000  0.22718000  1
  C  C127  1  0.55325000  0.47180000  0.21743000  1
  C  C128  1  0.55132000  0.47225000  0.18773000  1
  C  C129  1  0.58381000  0.47922000  0.18773000  1
  C  C130  1  0.60891000  0.48467000  0.21716000  1
  C  C131  1  0.64568000  0.49241000  0.22667000  1
  C  C132  1  0.51723000  0.46616000  0.36325000  1
  C  C133  1  0.54381000  0.48382000  0.40109000  1
  C  C134  1  0.53893000  0.49069000  0.42936000  1
  C  C135  1  0.41640000  0.35877000  0.28827000  1
  C  C136  1  0.41123000  0.33077000  0.29844000  1
  C  C137  1  0.40439000  0.29791000  0.27944000  1
  C  C138  1  0.43137000  0.37120000  0.15889000  1
  C  C139  1  0.43250000  0.34994000  0.12802000  1
  C  C140  1  0.44030000  0.36040000  0.10630000  1
  C  C141  1  0.53120000  0.41280000  0.30220000  1
  C  C142  1  0.65300000  0.53250000  0.39210000  1
  C  C143  1  0.60800000  0.54460000  0.37120000  1
  C  C144  1  0.56900000  0.53760000  0.35080000  1
  C  C145  1  0.62410000  0.52240000  0.36590000  1
  C  C146  1  0.66580000  0.56670000  0.42210000  1
  C  C147  1  0.23810000  0.29842000  0.77282000  1
  C  C148  1  0.25437000  0.33582000  0.78257000  1
  C  C149  1  0.28452000  0.36359000  0.81227000  1
  C  C150  1  0.29149000  0.39608000  0.81227000  1
  C  C151  1  0.26751000  0.39175000  0.78284000  1
  C  C152  1  0.26574000  0.41901000  0.77333000  1
  C  C153  1  0.10291000  0.15398000  0.63675000  1
  C  C154  1  0.08273000  0.14272000  0.59891000  1
  C  C155  1  0.06133000  0.10957000  0.57064000  1
  C  C156  1  0.07050000  0.12813000  0.71173000  1
  C  C157  1  0.03233000  0.11279000  0.70156000  1
  C  C158  1  0.01847000  0.12495000  0.72056000  1
  C  C159  1  0.21231000  0.27248000  0.84111000  1
  C  C160  1  0.22192000  0.30448000  0.87198000  1
  C  C161  1  0.25410000  0.33400000  0.89370000  1
  C  C162  1  0.11060000  0.22900000  0.69780000  1
  C  C163  1  0.14040000  0.26090000  0.60790000  1
  C  C164  1  0.17340000  0.23680000  0.62880000  1
  C  C165  1  0.18680000  0.21820000  0.64920000  1
  C  C166  1  0.15650000  0.25820000  0.63410000  1
  C  C167  1  0.14460000  0.24370000  0.57790000  1
  C  C168  1  0.53472000  0.06032000  0.76190000  1
  C  C169  1  0.52820000  0.08145000  0.74563000  1
  C  C170  1  0.52775000  0.07907000  0.71548000  1
  C  C171  1  0.52078000  0.10459000  0.70851000  1
  C  C172  1  0.51533000  0.12424000  0.73249000  1
  C  C173  1  0.50759000  0.15327000  0.73426000  1
  C  C174  1  0.53384000  0.05107000  0.89709000  1
  C  C175  1  0.51618000  0.05999000  0.91727000  1
  C  C176  1  0.50931000  0.04824000  0.93867000  1
  C  C177  1  0.64123000  0.05763000  0.92950000  1
  C  C178  1  0.66923000  0.08046000  0.96767000  1
  C  C179  1  0.70209000  0.10648000  0.98153000  1
  C  C180  1  0.62880000  0.06017000  0.78769000  1
  C  C181  1  0.65006000  0.08256000  0.77808000  1
  C  C182  1  0.63960000  0.07990000  0.74590000  1
  C  C183  1  0.58720000  0.11840000  0.88940000  1
  C  C184  1  0.46750000  0.12050000  0.85960000  1
  C  C185  1  0.45540000  0.06340000  0.82660000  1
  C  C186  1  0.46240000  0.03140000  0.81320000  1
  C  C187  1  0.47760000  0.10170000  0.84350000  1
  C  C188  1  0.43330000  0.09910000  0.85540000  1
  C  C189  1  0.70158000  0.93968000  0.47440000  1
  C  C190  1  0.66418000  0.91855000  0.44675000  1
  C  C191  1  0.63641000  0.92093000  0.44868000  1
  C  C192  1  0.60392000  0.89541000  0.41619000  1
  C  C193  1  0.60825000  0.87576000  0.39109000  1
  C  C194  1  0.58099000  0.84673000  0.35432000  1
  C  C195  1  0.84602000  0.94893000  0.48277000  1
  C  C196  1  0.85728000  0.94001000  0.45619000  1
  C  C197  1  0.89043000  0.95176000  0.46107000  1
  C  C198  1  0.87187000  0.94237000  0.58360000  1
  C  C199  1  0.88721000  0.91954000  0.58877000  1
  C  C200  1  0.87505000  0.89352000  0.59561000  1
  C  C201  1  0.72752000  0.93983000  0.56863000  1
  C  C202  1  0.69552000  0.91744000  0.56750000  1
  C  C203  1  0.66600000  0.92010000  0.55970000  1
  C  C204  1  0.77100000  0.88160000  0.46880000  1
  C  C205  1  0.73910000  0.87950000  0.34700000  1
  C  C206  1  0.76320000  0.93660000  0.39200000  1
  C  C207  1  0.78180000  0.96860000  0.43100000  1
  C  C208  1  0.74180000  0.89830000  0.37590000  1
  C  C209  1  0.75630000  0.90090000  0.33420000  1
  C  C210  1  0.29842000  0.77282000  0.23810000  1
  C  C211  1  0.33582000  0.78257000  0.25437000  1
  C  C212  1  0.36359000  0.81227000  0.28452000  1
  C  C213  1  0.39608000  0.81227000  0.29149000  1
  C  C214  1  0.39175000  0.78284000  0.26751000  1
  C  C215  1  0.41901000  0.77333000  0.26574000  1
  C  C216  1  0.15398000  0.63675000  0.10291000  1
  C  C217  1  0.14272000  0.59891000  0.08273000  1
  C  C218  1  0.10957000  0.57064000  0.06133000  1
  C  C219  1  0.12813000  0.71173000  0.07050000  1
  C  C220  1  0.11279000  0.70156000  0.03233000  1
  C  C221  1  0.12495000  0.72056000  0.01847000  1
  C  C222  1  0.27248000  0.84111000  0.21231000  1
  C  C223  1  0.30448000  0.87198000  0.22192000  1
  C  C224  1  0.33400000  0.89370000  0.25410000  1
  C  C225  1  0.22900000  0.69780000  0.11060000  1
  C  C226  1  0.26090000  0.60790000  0.14040000  1
  C  C227  1  0.23680000  0.62880000  0.17340000  1
  C  C228  1  0.21820000  0.64920000  0.18680000  1
  C  C229  1  0.25820000  0.63410000  0.15650000  1
  C  C230  1  0.24370000  0.57790000  0.14460000  1
  C  C231  1  0.46528000  0.22718000  0.52560000  1
  C  C232  1  0.47180000  0.21743000  0.55325000  1
  C  C233  1  0.47225000  0.18773000  0.55132000  1
  C  C234  1  0.47922000  0.18773000  0.58381000  1
  C  C235  1  0.48467000  0.21716000  0.60891000  1
  C  C236  1  0.49241000  0.22667000  0.64568000  1
  C  C237  1  0.46616000  0.36325000  0.51723000  1
  C  C238  1  0.48382000  0.40109000  0.54381000  1
  C  C239  1  0.49069000  0.42936000  0.53893000  1
  C  C240  1  0.35877000  0.28827000  0.41640000  1
  C  C241  1  0.33077000  0.29844000  0.41123000  1
  C  C242  1  0.29791000  0.27944000  0.40439000  1
  C  C243  1  0.37120000  0.15889000  0.43137000  1
  C  C244  1  0.34994000  0.12802000  0.43250000  1
  C  C245  1  0.36040000  0.10630000  0.44030000  1
  C  C246  1  0.41280000  0.30220000  0.53120000  1
  C  C247  1  0.53250000  0.39210000  0.65300000  1
  C  C248  1  0.54460000  0.37120000  0.60800000  1
  C  C249  1  0.53760000  0.35080000  0.56900000  1
  C  C250  1  0.52240000  0.36590000  0.62410000  1
  C  C251  1  0.56670000  0.42210000  0.66580000  1
  C  C252  1  0.77282000  0.53472000  0.47440000  1
  C  C253  1  0.78257000  0.52820000  0.44675000  1
  C  C254  1  0.81227000  0.52775000  0.44868000  1
  C  C255  1  0.81227000  0.52078000  0.41619000  1
  C  C256  1  0.78284000  0.51533000  0.39109000  1
  C  C257  1  0.77333000  0.50759000  0.35432000  1
  C  C258  1  0.63675000  0.53384000  0.48277000  1
  C  C259  1  0.59891000  0.51618000  0.45619000  1
  C  C260  1  0.57064000  0.50931000  0.46107000  1
  C  C261  1  0.71173000  0.64123000  0.58360000  1
  C  C262  1  0.70156000  0.66923000  0.58877000  1
  C  C263  1  0.72056000  0.70209000  0.59561000  1
  C  C264  1  0.84111000  0.62880000  0.56863000  1
  C  C265  1  0.87198000  0.65006000  0.56750000  1
  C  C266  1  0.89370000  0.63960000  0.55970000  1
  C  C267  1  0.69780000  0.58720000  0.46880000  1
  C  C268  1  0.60790000  0.46750000  0.34700000  1
  C  C269  1  0.62880000  0.45540000  0.39200000  1
  C  C270  1  0.64920000  0.46240000  0.43100000  1
  C  C271  1  0.63410000  0.47760000  0.37590000  1
  C  C272  1  0.57790000  0.43330000  0.33420000  1
  C  C273  1  0.22718000  0.70158000  0.76190000  1
  C  C274  1  0.21743000  0.66418000  0.74563000  1
  C  C275  1  0.18773000  0.63641000  0.71548000  1
  C  C276  1  0.18773000  0.60392000  0.70851000  1
  C  C277  1  0.21716000  0.60825000  0.73249000  1
  C  C278  1  0.22667000  0.58099000  0.73426000  1
  C  C279  1  0.36325000  0.84602000  0.89709000  1
  C  C280  1  0.40109000  0.85728000  0.91727000  1
  C  C281  1  0.42936000  0.89043000  0.93867000  1
  C  C282  1  0.28827000  0.87187000  0.92950000  1
  C  C283  1  0.29844000  0.88721000  0.96767000  1
  C  C284  1  0.27944000  0.87505000  0.98153000  1
  C  C285  1  0.15889000  0.72752000  0.78769000  1
  C  C286  1  0.12802000  0.69552000  0.77808000  1
  C  C287  1  0.10630000  0.66600000  0.74590000  1
  C  C288  1  0.30220000  0.77100000  0.88940000  1
  C  C289  1  0.39210000  0.73910000  0.85960000  1
  C  C290  1  0.37120000  0.76320000  0.82660000  1
  C  C291  1  0.35080000  0.78180000  0.81320000  1
  C  C292  1  0.36590000  0.74180000  0.84350000  1
  C  C293  1  0.42210000  0.75630000  0.85540000  1
  C  C294  1  0.06032000  0.29842000  0.52560000  1
  C  C295  1  0.08145000  0.33582000  0.55325000  1
  C  C296  1  0.07907000  0.36359000  0.55132000  1
  C  C297  1  0.10459000  0.39608000  0.58381000  1
  C  C298  1  0.12424000  0.39175000  0.60891000  1
  C  C299  1  0.15327000  0.41901000  0.64568000  1
  C  C300  1  0.05107000  0.15398000  0.51723000  1
  C  C301  1  0.05999000  0.14272000  0.54381000  1
  C  C302  1  0.04824000  0.10957000  0.53893000  1
  C  C303  1  0.05763000  0.12813000  0.41640000  1
  C  C304  1  0.08046000  0.11279000  0.41123000  1
  C  C305  1  0.10648000  0.12495000  0.40439000  1
  C  C306  1  0.06017000  0.27248000  0.43137000  1
  C  C307  1  0.08256000  0.30448000  0.43250000  1
  C  C308  1  0.07990000  0.33400000  0.44030000  1
  C  C309  1  0.11840000  0.22900000  0.53120000  1
  C  C310  1  0.12050000  0.26090000  0.65300000  1
  C  C311  1  0.06340000  0.23680000  0.60800000  1
  C  C312  1  0.03140000  0.21820000  0.56900000  1
  C  C313  1  0.10170000  0.25820000  0.62410000  1
  C  C314  1  0.09910000  0.24370000  0.66580000  1
  C  C315  1  0.93968000  0.46528000  0.23810000  1
  C  C316  1  0.91855000  0.47180000  0.25437000  1
  C  C317  1  0.92093000  0.47225000  0.28452000  1
  C  C318  1  0.89541000  0.47922000  0.29149000  1
  C  C319  1  0.87576000  0.48467000  0.26751000  1
  C  C320  1  0.84673000  0.49241000  0.26574000  1
  C  C321  1  0.94893000  0.46616000  0.10291000  1
  C  C322  1  0.94001000  0.48382000  0.08273000  1
  C  C323  1  0.95176000  0.49069000  0.06133000  1
  C  C324  1  0.94237000  0.35877000  0.07050000  1
  C  C325  1  0.91954000  0.33077000  0.03233000  1
  C  C326  1  0.89352000  0.29791000  0.01847000  1
  C  C327  1  0.93983000  0.37120000  0.21231000  1
  C  C328  1  0.91744000  0.34994000  0.22192000  1
  C  C329  1  0.92010000  0.36040000  0.25410000  1
  C  C330  1  0.88160000  0.41280000  0.11060000  1
  C  C331  1  0.87950000  0.53250000  0.14040000  1
  C  C332  1  0.93660000  0.54460000  0.17340000  1
  C  C333  1  0.96860000  0.53760000  0.18680000  1
  C  C334  1  0.89830000  0.52240000  0.15650000  1
  C  C335  1  0.90090000  0.56670000  0.14460000  1
  C  C336  1  0.47440000  0.77282000  0.53472000  1
  C  C337  1  0.44675000  0.78257000  0.52820000  1
  C  C338  1  0.44868000  0.81227000  0.52775000  1
  C  C339  1  0.41619000  0.81227000  0.52078000  1
  C  C340  1  0.39109000  0.78284000  0.51533000  1
  C  C341  1  0.35432000  0.77333000  0.50759000  1
  C  C342  1  0.48277000  0.63675000  0.53384000  1
  C  C343  1  0.45619000  0.59891000  0.51618000  1
  C  C344  1  0.46107000  0.57064000  0.50931000  1
  C  C345  1  0.58360000  0.71173000  0.64123000  1
  C  C346  1  0.58877000  0.70156000  0.66923000  1
  C  C347  1  0.59561000  0.72056000  0.70209000  1
  C  C348  1  0.56863000  0.84111000  0.62880000  1
  C  C349  1  0.56750000  0.87198000  0.65006000  1
  C  C350  1  0.55970000  0.89370000  0.63960000  1
  C  C351  1  0.46880000  0.69780000  0.58720000  1
  C  C352  1  0.34700000  0.60790000  0.46750000  1
  C  C353  1  0.39200000  0.62880000  0.45540000  1
  C  C354  1  0.43100000  0.64920000  0.46240000  1
  C  C355  1  0.37590000  0.63410000  0.47760000  1
  C  C356  1  0.33420000  0.57790000  0.43330000  1
  C  C357  1  0.76190000  0.22718000  0.70158000  1
  C  C358  1  0.74563000  0.21743000  0.66418000  1
  C  C359  1  0.71548000  0.18773000  0.63641000  1
  C  C360  1  0.70851000  0.18773000  0.60392000  1
  C  C361  1  0.73249000  0.21716000  0.60825000  1
  C  C362  1  0.73426000  0.22667000  0.58099000  1
  C  C363  1  0.89709000  0.36325000  0.84602000  1
  C  C364  1  0.91727000  0.40109000  0.85728000  1
  C  C365  1  0.93867000  0.42936000  0.89043000  1
  C  C366  1  0.92950000  0.28827000  0.87187000  1
  C  C367  1  0.96767000  0.29844000  0.88721000  1
  C  C368  1  0.98153000  0.27944000  0.87505000  1
  C  C369  1  0.78769000  0.15889000  0.72752000  1
  C  C370  1  0.77808000  0.12802000  0.69552000  1
  C  C371  1  0.74590000  0.10630000  0.66600000  1
  C  C372  1  0.88940000  0.30220000  0.77100000  1
  C  C373  1  0.85960000  0.39210000  0.73910000  1
  C  C374  1  0.82660000  0.37120000  0.76320000  1
  C  C375  1  0.81320000  0.35080000  0.78180000  1
  C  C376  1  0.84350000  0.36590000  0.74180000  1
  C  C377  1  0.85540000  0.42210000  0.75630000  1
  C  C378  1  0.52560000  0.06032000  0.29842000  1
  C  C379  1  0.55325000  0.08145000  0.33582000  1
  C  C380  1  0.55132000  0.07907000  0.36359000  1
  C  C381  1  0.58381000  0.10459000  0.39608000  1
  C  C382  1  0.60891000  0.12424000  0.39175000  1
  C  C383  1  0.64568000  0.15327000  0.41901000  1
  C  C384  1  0.51723000  0.05107000  0.15398000  1
  C  C385  1  0.54381000  0.05999000  0.14272000  1
  C  C386  1  0.53893000  0.04824000  0.10957000  1
  C  C387  1  0.41640000  0.05763000  0.12813000  1
  C  C388  1  0.41123000  0.08046000  0.11279000  1
  C  C389  1  0.40439000  0.10648000  0.12495000  1
  C  C390  1  0.43137000  0.06017000  0.27248000  1
  C  C391  1  0.43250000  0.08256000  0.30448000  1
  C  C392  1  0.44030000  0.07990000  0.33400000  1
  C  C393  1  0.53120000  0.11840000  0.22900000  1
  C  C394  1  0.65300000  0.12050000  0.26090000  1
  C  C395  1  0.60800000  0.06340000  0.23680000  1
  C  C396  1  0.56900000  0.03140000  0.21820000  1
  C  C397  1  0.62410000  0.10170000  0.25820000  1
  C  C398  1  0.66580000  0.09910000  0.24370000  1
  C  C399  1  0.23810000  0.93968000  0.46528000  1
  C  C400  1  0.25437000  0.91855000  0.47180000  1
  C  C401  1  0.28452000  0.92093000  0.47225000  1
  C  C402  1  0.29149000  0.89541000  0.47922000  1
  C  C403  1  0.26751000  0.87576000  0.48467000  1
  C  C404  1  0.26574000  0.84673000  0.49241000  1
  C  C405  1  0.10291000  0.94893000  0.46616000  1
  C  C406  1  0.08273000  0.94001000  0.48382000  1
  C  C407  1  0.06133000  0.95176000  0.49069000  1
  C  C408  1  0.07050000  0.94237000  0.35877000  1
  C  C409  1  0.03233000  0.91954000  0.33077000  1
  C  C410  1  0.01847000  0.89352000  0.29791000  1
  C  C411  1  0.21231000  0.93983000  0.37120000  1
  C  C412  1  0.22192000  0.91744000  0.34994000  1
  C  C413  1  0.25410000  0.92010000  0.36040000  1
  C  C414  1  0.11060000  0.88160000  0.41280000  1
  C  C415  1  0.14040000  0.87950000  0.53250000  1
  C  C416  1  0.17340000  0.93660000  0.54460000  1
  C  C417  1  0.18680000  0.96860000  0.53760000  1
  C  C418  1  0.15650000  0.89830000  0.52240000  1
  C  C419  1  0.14460000  0.90090000  0.56670000  1
  C  C420  1  0.53472000  0.47440000  0.77282000  1
  C  C421  1  0.52820000  0.44675000  0.78257000  1
  C  C422  1  0.52775000  0.44868000  0.81227000  1
  C  C423  1  0.52078000  0.41619000  0.81227000  1
  C  C424  1  0.51533000  0.39109000  0.78284000  1
  C  C425  1  0.50759000  0.35432000  0.77333000  1
  C  C426  1  0.53384000  0.48277000  0.63675000  1
  C  C427  1  0.51618000  0.45619000  0.59891000  1
  C  C428  1  0.50931000  0.46107000  0.57064000  1
  C  C429  1  0.64123000  0.58360000  0.71173000  1
  C  C430  1  0.66923000  0.58877000  0.70156000  1
  C  C431  1  0.70209000  0.59561000  0.72056000  1
  C  C432  1  0.62880000  0.56863000  0.84111000  1
  C  C433  1  0.65006000  0.56750000  0.87198000  1
  C  C434  1  0.63960000  0.55970000  0.89370000  1
  C  C435  1  0.58720000  0.46880000  0.69780000  1
  C  C436  1  0.46750000  0.34700000  0.60790000  1
  C  C437  1  0.45540000  0.39200000  0.62880000  1
  C  C438  1  0.46240000  0.43100000  0.64920000  1
  C  C439  1  0.47760000  0.37590000  0.63410000  1
  C  C440  1  0.43330000  0.33420000  0.57790000  1
  C  C441  1  0.70158000  0.76190000  0.22718000  1
  C  C442  1  0.66418000  0.74563000  0.21743000  1
  C  C443  1  0.63641000  0.71548000  0.18773000  1
  C  C444  1  0.60392000  0.70851000  0.18773000  1
  C  C445  1  0.60825000  0.73249000  0.21716000  1
  C  C446  1  0.58099000  0.73426000  0.22667000  1
  C  C447  1  0.84602000  0.89709000  0.36325000  1
  C  C448  1  0.85728000  0.91727000  0.40109000  1
  C  C449  1  0.89043000  0.93867000  0.42936000  1
  C  C450  1  0.87187000  0.92950000  0.28827000  1
  C  C451  1  0.88721000  0.96767000  0.29844000  1
  C  C452  1  0.87505000  0.98153000  0.27944000  1
  C  C453  1  0.72752000  0.78769000  0.15889000  1
  C  C454  1  0.69552000  0.77808000  0.12802000  1
  C  C455  1  0.66600000  0.74590000  0.10630000  1
  C  C456  1  0.77100000  0.88940000  0.30220000  1
  C  C457  1  0.73910000  0.85960000  0.39210000  1
  C  C458  1  0.76320000  0.82660000  0.37120000  1
  C  C459  1  0.78180000  0.81320000  0.35080000  1
  C  C460  1  0.74180000  0.84350000  0.36590000  1
  C  C461  1  0.75630000  0.85540000  0.42210000  1
  C  C462  1  0.29842000  0.52560000  0.06032000  1
  C  C463  1  0.33582000  0.55325000  0.08145000  1
  C  C464  1  0.36359000  0.55132000  0.07907000  1
  C  C465  1  0.39608000  0.58381000  0.10459000  1
  C  C466  1  0.39175000  0.60891000  0.12424000  1
  C  C467  1  0.41901000  0.64568000  0.15327000  1
  C  C468  1  0.15398000  0.51723000  0.05107000  1
  C  C469  1  0.14272000  0.54381000  0.05999000  1
  C  C470  1  0.10957000  0.53893000  0.04824000  1
  C  C471  1  0.12813000  0.41640000  0.05763000  1
  C  C472  1  0.11279000  0.41123000  0.08046000  1
  C  C473  1  0.12495000  0.40439000  0.10648000  1
  C  C474  1  0.27248000  0.43137000  0.06017000  1
  C  C475  1  0.30448000  0.43250000  0.08256000  1
  C  C476  1  0.33400000  0.44030000  0.07990000  1
  C  C477  1  0.22900000  0.53120000  0.11840000  1
  C  C478  1  0.26090000  0.65300000  0.12050000  1
  C  C479  1  0.23680000  0.60800000  0.06340000  1
  C  C480  1  0.21820000  0.56900000  0.03140000  1
  C  C481  1  0.25820000  0.62410000  0.10170000  1
  C  C482  1  0.24370000  0.66580000  0.09910000  1
  C  C483  1  0.46528000  0.23810000  0.93968000  1
  C  C484  1  0.47180000  0.25437000  0.91855000  1
  C  C485  1  0.47225000  0.28452000  0.92093000  1
  C  C486  1  0.47922000  0.29149000  0.89541000  1
  C  C487  1  0.48467000  0.26751000  0.87576000  1
  C  C488  1  0.49241000  0.26574000  0.84673000  1
  C  C489  1  0.46616000  0.10291000  0.94893000  1
  C  C490  1  0.48382000  0.08273000  0.94001000  1
  C  C491  1  0.49069000  0.06133000  0.95176000  1
  C  C492  1  0.35877000  0.07050000  0.94237000  1
  C  C493  1  0.33077000  0.03233000  0.91954000  1
  C  C494  1  0.29791000  0.01847000  0.89352000  1
  C  C495  1  0.37120000  0.21231000  0.93983000  1
  C  C496  1  0.34994000  0.22192000  0.91744000  1
  C  C497  1  0.36040000  0.25410000  0.92010000  1
  C  C498  1  0.41280000  0.11060000  0.88160000  1
  C  C499  1  0.53250000  0.14040000  0.87950000  1
  C  C500  1  0.54460000  0.17340000  0.93660000  1
  C  C501  1  0.53760000  0.18680000  0.96860000  1
  C  C502  1  0.52240000  0.15650000  0.89830000  1
  C  C503  1  0.56670000  0.14460000  0.90090000  1
  C  C504  1  0.22718000  0.76190000  0.70158000  1
  C  C505  1  0.21743000  0.74563000  0.66418000  1
  C  C506  1  0.18773000  0.71548000  0.63641000  1
  C  C507  1  0.18773000  0.70851000  0.60392000  1
  C  C508  1  0.21716000  0.73249000  0.60825000  1
  C  C509  1  0.22667000  0.73426000  0.58099000  1
  C  C510  1  0.36325000  0.89709000  0.84602000  1
  C  C511  1  0.40109000  0.91727000  0.85728000  1
  C  C512  1  0.42936000  0.93867000  0.89043000  1
  C  C513  1  0.28827000  0.92950000  0.87187000  1
  C  C514  1  0.29844000  0.96767000  0.88721000  1
  C  C515  1  0.27944000  0.98153000  0.87505000  1
  C  C516  1  0.15889000  0.78769000  0.72752000  1
  C  C517  1  0.12802000  0.77808000  0.69552000  1
  C  C518  1  0.10630000  0.74590000  0.66600000  1
  C  C519  1  0.30220000  0.88940000  0.77100000  1
  C  C520  1  0.39210000  0.85960000  0.73910000  1
  C  C521  1  0.37120000  0.82660000  0.76320000  1
  C  C522  1  0.35080000  0.81320000  0.78180000  1
  C  C523  1  0.36590000  0.84350000  0.74180000  1
  C  C524  1  0.42210000  0.85540000  0.75630000  1
  C  C525  1  0.77282000  0.47440000  0.53472000  1
  C  C526  1  0.78257000  0.44675000  0.52820000  1
  C  C527  1  0.81227000  0.44868000  0.52775000  1
  C  C528  1  0.81227000  0.41619000  0.52078000  1
  C  C529  1  0.78284000  0.39109000  0.51533000  1
  C  C530  1  0.77333000  0.35432000  0.50759000  1
  C  C531  1  0.63675000  0.48277000  0.53384000  1
  C  C532  1  0.59891000  0.45619000  0.51618000  1
  C  C533  1  0.57064000  0.46107000  0.50931000  1
  C  C534  1  0.71173000  0.58360000  0.64123000  1
  C  C535  1  0.70156000  0.58877000  0.66923000  1
  C  C536  1  0.72056000  0.59561000  0.70209000  1
  C  C537  1  0.84111000  0.56863000  0.62880000  1
  C  C538  1  0.87198000  0.56750000  0.65006000  1
  C  C539  1  0.89370000  0.55970000  0.63960000  1
  C  C540  1  0.69780000  0.46880000  0.58720000  1
  C  C541  1  0.60790000  0.34700000  0.46750000  1
  C  C542  1  0.62880000  0.39200000  0.45540000  1
  C  C543  1  0.64920000  0.43100000  0.46240000  1
  C  C544  1  0.63410000  0.37590000  0.47760000  1
  C  C545  1  0.57790000  0.33420000  0.43330000  1
  C  C546  1  0.93968000  0.23810000  0.46528000  1
  C  C547  1  0.91855000  0.25437000  0.47180000  1
  C  C548  1  0.92093000  0.28452000  0.47225000  1
  C  C549  1  0.89541000  0.29149000  0.47922000  1
  C  C550  1  0.87576000  0.26751000  0.48467000  1
  C  C551  1  0.84673000  0.26574000  0.49241000  1
  C  C552  1  0.94893000  0.10291000  0.46616000  1
  C  C553  1  0.94001000  0.08273000  0.48382000  1
  C  C554  1  0.95176000  0.06133000  0.49069000  1
  C  C555  1  0.94237000  0.07050000  0.35877000  1
  C  C556  1  0.91954000  0.03233000  0.33077000  1
  C  C557  1  0.89352000  0.01847000  0.29791000  1
  C  C558  1  0.93983000  0.21231000  0.37120000  1
  C  C559  1  0.91744000  0.22192000  0.34994000  1
  C  C560  1  0.92010000  0.25410000  0.36040000  1
  C  C561  1  0.88160000  0.11060000  0.41280000  1
  C  C562  1  0.87950000  0.14040000  0.53250000  1
  C  C563  1  0.93660000  0.17340000  0.54460000  1
  C  C564  1  0.96860000  0.18680000  0.53760000  1
  C  C565  1  0.89830000  0.15650000  0.52240000  1
  C  C566  1  0.90090000  0.14460000  0.56670000  1
  C  C567  1  0.06032000  0.52560000  0.29842000  1
  C  C568  1  0.08145000  0.55325000  0.33582000  1
  C  C569  1  0.07907000  0.55132000  0.36359000  1
  C  C570  1  0.10459000  0.58381000  0.39608000  1
  C  C571  1  0.12424000  0.60891000  0.39175000  1
  C  C572  1  0.15327000  0.64568000  0.41901000  1
  C  C573  1  0.05107000  0.51723000  0.15398000  1
  C  C574  1  0.05999000  0.54381000  0.14272000  1
  C  C575  1  0.04824000  0.53893000  0.10957000  1
  C  C576  1  0.05763000  0.41640000  0.12813000  1
  C  C577  1  0.08046000  0.41123000  0.11279000  1
  C  C578  1  0.10648000  0.40439000  0.12495000  1
  C  C579  1  0.06017000  0.43137000  0.27248000  1
  C  C580  1  0.08256000  0.43250000  0.30448000  1
  C  C581  1  0.07990000  0.44030000  0.33400000  1
  C  C582  1  0.11840000  0.53120000  0.22900000  1
  C  C583  1  0.12050000  0.65300000  0.26090000  1
  C  C584  1  0.06340000  0.60800000  0.23680000  1
  C  C585  1  0.03140000  0.56900000  0.21820000  1
  C  C586  1  0.10170000  0.62410000  0.25820000  1
  C  C587  1  0.09910000  0.66580000  0.24370000  1
  C  C588  1  0.52560000  0.29842000  0.06032000  1
  C  C589  1  0.55325000  0.33582000  0.08145000  1
  C  C590  1  0.55132000  0.36359000  0.07907000  1
  C  C591  1  0.58381000  0.39608000  0.10459000  1
  C  C592  1  0.60891000  0.39175000  0.12424000  1
  C  C593  1  0.64568000  0.41901000  0.15327000  1
  C  C594  1  0.51723000  0.15398000  0.05107000  1
  C  C595  1  0.54381000  0.14272000  0.05999000  1
  C  C596  1  0.53893000  0.10957000  0.04824000  1
  C  C597  1  0.41640000  0.12813000  0.05763000  1
  C  C598  1  0.41123000  0.11279000  0.08046000  1
  C  C599  1  0.40439000  0.12495000  0.10648000  1
  C  C600  1  0.43137000  0.27248000  0.06017000  1
  C  C601  1  0.43250000  0.30448000  0.08256000  1
  C  C602  1  0.44030000  0.33400000  0.07990000  1
  C  C603  1  0.53120000  0.22900000  0.11840000  1
  C  C604  1  0.65300000  0.26090000  0.12050000  1
  C  C605  1  0.60800000  0.23680000  0.06340000  1
  C  C606  1  0.56900000  0.21820000  0.03140000  1
  C  C607  1  0.62410000  0.25820000  0.10170000  1
  C  C608  1  0.66580000  0.24370000  0.09910000  1
  C  C609  1  0.23810000  0.46528000  0.93968000  1
  C  C610  1  0.25437000  0.47180000  0.91855000  1
  C  C611  1  0.28452000  0.47225000  0.92093000  1
  C  C612  1  0.29149000  0.47922000  0.89541000  1
  C  C613  1  0.26751000  0.48467000  0.87576000  1
  C  C614  1  0.26574000  0.49241000  0.84673000  1
  C  C615  1  0.10291000  0.46616000  0.94893000  1
  C  C616  1  0.08273000  0.48382000  0.94001000  1
  C  C617  1  0.06133000  0.49069000  0.95176000  1
  C  C618  1  0.07050000  0.35877000  0.94237000  1
  C  C619  1  0.03233000  0.33077000  0.91954000  1
  C  C620  1  0.01847000  0.29791000  0.89352000  1
  C  C621  1  0.21231000  0.37120000  0.93983000  1
  C  C622  1  0.22192000  0.34994000  0.91744000  1
  C  C623  1  0.25410000  0.36040000  0.92010000  1
  C  C624  1  0.11060000  0.41280000  0.88160000  1
  C  C625  1  0.14040000  0.53250000  0.87950000  1
  C  C626  1  0.17340000  0.54460000  0.93660000  1
  C  C627  1  0.18680000  0.53760000  0.96860000  1
  C  C628  1  0.15650000  0.52240000  0.89830000  1
  C  C629  1  0.14460000  0.56670000  0.90090000  1
  C  C630  1  0.47440000  0.53472000  0.77282000  1
  C  C631  1  0.44675000  0.52820000  0.78257000  1
  C  C632  1  0.44868000  0.52775000  0.81227000  1
  C  C633  1  0.41619000  0.52078000  0.81227000  1
  C  C634  1  0.39109000  0.51533000  0.78284000  1
  C  C635  1  0.35432000  0.50759000  0.77333000  1
  C  C636  1  0.48277000  0.53384000  0.63675000  1
  C  C637  1  0.45619000  0.51618000  0.59891000  1
  C  C638  1  0.46107000  0.50931000  0.57064000  1
  C  C639  1  0.58360000  0.64123000  0.71173000  1
  C  C640  1  0.58877000  0.66923000  0.70156000  1
  C  C641  1  0.59561000  0.70209000  0.72056000  1
  C  C642  1  0.56863000  0.62880000  0.84111000  1
  C  C643  1  0.56750000  0.65006000  0.87198000  1
  C  C644  1  0.55970000  0.63960000  0.89370000  1
  C  C645  1  0.46880000  0.58720000  0.69780000  1
  C  C646  1  0.34700000  0.46750000  0.60790000  1
  C  C647  1  0.39200000  0.45540000  0.62880000  1
  C  C648  1  0.43100000  0.46240000  0.64920000  1
  C  C649  1  0.37590000  0.47760000  0.63410000  1
  C  C650  1  0.33420000  0.43330000  0.57790000  1
  C  C651  1  0.76190000  0.70158000  0.22718000  1
  C  C652  1  0.74563000  0.66418000  0.21743000  1
  C  C653  1  0.71548000  0.63641000  0.18773000  1
  C  C654  1  0.70851000  0.60392000  0.18773000  1
  C  C655  1  0.73249000  0.60825000  0.21716000  1
  C  C656  1  0.73426000  0.58099000  0.22667000  1
  C  C657  1  0.89709000  0.84602000  0.36325000  1
  C  C658  1  0.91727000  0.85728000  0.40109000  1
  C  C659  1  0.93867000  0.89043000  0.42936000  1
  C  C660  1  0.92950000  0.87187000  0.28827000  1
  C  C661  1  0.96767000  0.88721000  0.29844000  1
  C  C662  1  0.98153000  0.87505000  0.27944000  1
  C  C663  1  0.78769000  0.72752000  0.15889000  1
  C  C664  1  0.77808000  0.69552000  0.12802000  1
  C  C665  1  0.74590000  0.66600000  0.10630000  1
  C  C666  1  0.88940000  0.77100000  0.30220000  1
  C  C667  1  0.85960000  0.73910000  0.39210000  1
  C  C668  1  0.82660000  0.76320000  0.37120000  1
  C  C669  1  0.81320000  0.78180000  0.35080000  1
  C  C670  1  0.84350000  0.74180000  0.36590000  1
  C  C671  1  0.85540000  0.75630000  0.42210000  1
  C  C672  1  0.46528000  0.93968000  0.23810000  1
  C  C673  1  0.47180000  0.91855000  0.25437000  1
  C  C674  1  0.47225000  0.92093000  0.28452000  1
  C  C675  1  0.47922000  0.89541000  0.29149000  1
  C  C676  1  0.48467000  0.87576000  0.26751000  1
  C  C677  1  0.49241000  0.84673000  0.26574000  1
  C  C678  1  0.46616000  0.94893000  0.10291000  1
  C  C679  1  0.48382000  0.94001000  0.08273000  1
  C  C680  1  0.49069000  0.95176000  0.06133000  1
  C  C681  1  0.35877000  0.94237000  0.07050000  1
  C  C682  1  0.33077000  0.91954000  0.03233000  1
  C  C683  1  0.29791000  0.89352000  0.01847000  1
  C  C684  1  0.37120000  0.93983000  0.21231000  1
  C  C685  1  0.34994000  0.91744000  0.22192000  1
  C  C686  1  0.36040000  0.92010000  0.25410000  1
  C  C687  1  0.41280000  0.88160000  0.11060000  1
  C  C688  1  0.53250000  0.87950000  0.14040000  1
  C  C689  1  0.54460000  0.93660000  0.17340000  1
  C  C690  1  0.53760000  0.96860000  0.18680000  1
  C  C691  1  0.52240000  0.89830000  0.15650000  1
  C  C692  1  0.56670000  0.90090000  0.14460000  1
  C  C693  1  0.29842000  0.06032000  0.52560000  1
  C  C694  1  0.33582000  0.08145000  0.55325000  1
  C  C695  1  0.36359000  0.07907000  0.55132000  1
  C  C696  1  0.39608000  0.10459000  0.58381000  1
  C  C697  1  0.39175000  0.12424000  0.60891000  1
  C  C698  1  0.41901000  0.15327000  0.64568000  1
  C  C699  1  0.15398000  0.05107000  0.51723000  1
  C  C700  1  0.14272000  0.05999000  0.54381000  1
  C  C701  1  0.10957000  0.04824000  0.53893000  1
  C  C702  1  0.12813000  0.05763000  0.41640000  1
  C  C703  1  0.11279000  0.08046000  0.41123000  1
  C  C704  1  0.12495000  0.10648000  0.40439000  1
  C  C705  1  0.27248000  0.06017000  0.43137000  1
  C  C706  1  0.30448000  0.08256000  0.43250000  1
  C  C707  1  0.33400000  0.07990000  0.44030000  1
  C  C708  1  0.22900000  0.11840000  0.53120000  1
  C  C709  1  0.26090000  0.12050000  0.65300000  1
  C  C710  1  0.23680000  0.06340000  0.60800000  1
  C  C711  1  0.21820000  0.03140000  0.56900000  1
  C  C712  1  0.25820000  0.10170000  0.62410000  1
  C  C713  1  0.24370000  0.09910000  0.66580000  1
  C  C714  1  0.70158000  0.22718000  0.76190000  1
  C  C715  1  0.66418000  0.21743000  0.74563000  1
  C  C716  1  0.63641000  0.18773000  0.71548000  1
  C  C717  1  0.60392000  0.18773000  0.70851000  1
  C  C718  1  0.60825000  0.21716000  0.73249000  1
  C  C719  1  0.58099000  0.22667000  0.73426000  1
  C  C720  1  0.84602000  0.36325000  0.89709000  1
  C  C721  1  0.85728000  0.40109000  0.91727000  1
  C  C722  1  0.89043000  0.42936000  0.93867000  1
  C  C723  1  0.87187000  0.28827000  0.92950000  1
  C  C724  1  0.88721000  0.29844000  0.96767000  1
  C  C725  1  0.87505000  0.27944000  0.98153000  1
  C  C726  1  0.72752000  0.15889000  0.78769000  1
  C  C727  1  0.69552000  0.12802000  0.77808000  1
  C  C728  1  0.66600000  0.10630000  0.74590000  1
  C  C729  1  0.77100000  0.30220000  0.88940000  1
  C  C730  1  0.73910000  0.39210000  0.85960000  1
  C  C731  1  0.76320000  0.37120000  0.82660000  1
  C  C732  1  0.78180000  0.35080000  0.81320000  1
  C  C733  1  0.74180000  0.36590000  0.84350000  1
  C  C734  1  0.75630000  0.42210000  0.85540000  1
  C  C735  1  0.53472000  0.77282000  0.47440000  1
  C  C736  1  0.52820000  0.78257000  0.44675000  1
  C  C737  1  0.52775000  0.81227000  0.44868000  1
  C  C738  1  0.52078000  0.81227000  0.41619000  1
  C  C739  1  0.51533000  0.78284000  0.39109000  1
  C  C740  1  0.50759000  0.77333000  0.35432000  1
  C  C741  1  0.53384000  0.63675000  0.48277000  1
  C  C742  1  0.51618000  0.59891000  0.45619000  1
  C  C743  1  0.50931000  0.57064000  0.46107000  1
  C  C744  1  0.64123000  0.71173000  0.58360000  1
  C  C745  1  0.66923000  0.70156000  0.58877000  1
  C  C746  1  0.70209000  0.72056000  0.59561000  1
  C  C747  1  0.62880000  0.84111000  0.56863000  1
  C  C748  1  0.65006000  0.87198000  0.56750000  1
  C  C749  1  0.63960000  0.89370000  0.55970000  1
  C  C750  1  0.58720000  0.69780000  0.46880000  1
  C  C751  1  0.46750000  0.60790000  0.34700000  1
  C  C752  1  0.45540000  0.62880000  0.39200000  1
  C  C753  1  0.46240000  0.64920000  0.43100000  1
  C  C754  1  0.47760000  0.63410000  0.37590000  1
  C  C755  1  0.43330000  0.57790000  0.33420000  1
  C  C756  1  0.22718000  0.46528000  0.52560000  1
  C  C757  1  0.21743000  0.47180000  0.55325000  1
  C  C758  1  0.18773000  0.47225000  0.55132000  1
  C  C759  1  0.18773000  0.47922000  0.58381000  1
  C  C760  1  0.21716000  0.48467000  0.60891000  1
  C  C761  1  0.22667000  0.49241000  0.64568000  1
  C  C762  1  0.36325000  0.46616000  0.51723000  1
  C  C763  1  0.40109000  0.48382000  0.54381000  1
  C  C764  1  0.42936000  0.49069000  0.53893000  1
  C  C765  1  0.28827000  0.35877000  0.41640000  1
  C  C766  1  0.29844000  0.33077000  0.41123000  1
  C  C767  1  0.27944000  0.29791000  0.40439000  1
  C  C768  1  0.15889000  0.37120000  0.43137000  1
  C  C769  1  0.12802000  0.34994000  0.43250000  1
  C  C770  1  0.10630000  0.36040000  0.44030000  1
  C  C771  1  0.30220000  0.41280000  0.53120000  1
  C  C772  1  0.39210000  0.53250000  0.65300000  1
  C  C773  1  0.37120000  0.54460000  0.60800000  1
  C  C774  1  0.35080000  0.53760000  0.56900000  1
  C  C775  1  0.36590000  0.52240000  0.62410000  1
  C  C776  1  0.42210000  0.56670000  0.66580000  1
  C  C777  1  0.77282000  0.29842000  0.23810000  1
  C  C778  1  0.78257000  0.33582000  0.25437000  1
  C  C779  1  0.81227000  0.36359000  0.28452000  1
  C  C780  1  0.81227000  0.39608000  0.29149000  1
  C  C781  1  0.78284000  0.39175000  0.26751000  1
  C  C782  1  0.77333000  0.41901000  0.26574000  1
  C  C783  1  0.63675000  0.15398000  0.10291000  1
  C  C784  1  0.59891000  0.14272000  0.08273000  1
  C  C785  1  0.57064000  0.10957000  0.06133000  1
  C  C786  1  0.71173000  0.12813000  0.07050000  1
  C  C787  1  0.70156000  0.11279000  0.03233000  1
  C  C788  1  0.72056000  0.12495000  0.01847000  1
  C  C789  1  0.84111000  0.27248000  0.21231000  1
  C  C790  1  0.87198000  0.30448000  0.22192000  1
  C  C791  1  0.89370000  0.33400000  0.25410000  1
  C  C792  1  0.69780000  0.22900000  0.11060000  1
  C  C793  1  0.60790000  0.26090000  0.14040000  1
  C  C794  1  0.62880000  0.23680000  0.17340000  1
  C  C795  1  0.64920000  0.21820000  0.18680000  1
  C  C796  1  0.63410000  0.25820000  0.15650000  1
  C  C797  1  0.57790000  0.24370000  0.14460000  1
  C  C798  1  0.93968000  0.70158000  0.47440000  1
  C  C799  1  0.91855000  0.66418000  0.44675000  1
  C  C800  1  0.92093000  0.63641000  0.44868000  1
  C  C801  1  0.89541000  0.60392000  0.41619000  1
  C  C802  1  0.87576000  0.60825000  0.39109000  1
  C  C803  1  0.84673000  0.58099000  0.35432000  1
  C  C804  1  0.94893000  0.84602000  0.48277000  1
  C  C805  1  0.94001000  0.85728000  0.45619000  1
  C  C806  1  0.95176000  0.89043000  0.46107000  1
  C  C807  1  0.94237000  0.87187000  0.58360000  1
  C  C808  1  0.91954000  0.88721000  0.58877000  1
  C  C809  1  0.89352000  0.87505000  0.59561000  1
  C  C810  1  0.93983000  0.72752000  0.56863000  1
  C  C811  1  0.91744000  0.69552000  0.56750000  1
  C  C812  1  0.92010000  0.66600000  0.55970000  1
  C  C813  1  0.88160000  0.77100000  0.46880000  1
  C  C814  1  0.87950000  0.73910000  0.34700000  1
  C  C815  1  0.93660000  0.76320000  0.39200000  1
  C  C816  1  0.96860000  0.78180000  0.43100000  1
  C  C817  1  0.89830000  0.74180000  0.37590000  1
  C  C818  1  0.90090000  0.75630000  0.33420000  1
  C  C819  1  0.06032000  0.53472000  0.76190000  1
  C  C820  1  0.08145000  0.52820000  0.74563000  1
  C  C821  1  0.07907000  0.52775000  0.71548000  1
  C  C822  1  0.10459000  0.52078000  0.70851000  1
  C  C823  1  0.12424000  0.51533000  0.73249000  1
  C  C824  1  0.15327000  0.50759000  0.73426000  1
  C  C825  1  0.05107000  0.53384000  0.89709000  1
  C  C826  1  0.05999000  0.51618000  0.91727000  1
  C  C827  1  0.04824000  0.50931000  0.93867000  1
  C  C828  1  0.05763000  0.64123000  0.92950000  1
  C  C829  1  0.08046000  0.66923000  0.96767000  1
  C  C830  1  0.10648000  0.70209000  0.98153000  1
  C  C831  1  0.06017000  0.62880000  0.78769000  1
  C  C832  1  0.08256000  0.65006000  0.77808000  1
  C  C833  1  0.07990000  0.63960000  0.74590000  1
  C  C834  1  0.11840000  0.58720000  0.88940000  1
  C  C835  1  0.12050000  0.46750000  0.85960000  1
  C  C836  1  0.06340000  0.45540000  0.82660000  1
  C  C837  1  0.03140000  0.46240000  0.81320000  1
  C  C838  1  0.10170000  0.47760000  0.84350000  1
  C  C839  1  0.09910000  0.43330000  0.85540000  1
  C  C840  1  0.52560000  0.22718000  0.46528000  1
  C  C841  1  0.55325000  0.21743000  0.47180000  1
  C  C842  1  0.55132000  0.18773000  0.47225000  1
  C  C843  1  0.58381000  0.18773000  0.47922000  1
  C  C844  1  0.60891000  0.21716000  0.48467000  1
  C  C845  1  0.64568000  0.22667000  0.49241000  1
  C  C846  1  0.51723000  0.36325000  0.46616000  1
  C  C847  1  0.54381000  0.40109000  0.48382000  1
  C  C848  1  0.53893000  0.42936000  0.49069000  1
  C  C849  1  0.41640000  0.28827000  0.35877000  1
  C  C850  1  0.41123000  0.29844000  0.33077000  1
  C  C851  1  0.40439000  0.27944000  0.29791000  1
  C  C852  1  0.43137000  0.15889000  0.37120000  1
  C  C853  1  0.43250000  0.12802000  0.34994000  1
  C  C854  1  0.44030000  0.10630000  0.36040000  1
  C  C855  1  0.53120000  0.30220000  0.41280000  1
  C  C856  1  0.65300000  0.39210000  0.53250000  1
  C  C857  1  0.60800000  0.37120000  0.54460000  1
  C  C858  1  0.56900000  0.35080000  0.53760000  1
  C  C859  1  0.62410000  0.36590000  0.52240000  1
  C  C860  1  0.66580000  0.42210000  0.56670000  1
  C  C861  1  0.23810000  0.77282000  0.29842000  1
  C  C862  1  0.25437000  0.78257000  0.33582000  1
  C  C863  1  0.28452000  0.81227000  0.36359000  1
  C  C864  1  0.29149000  0.81227000  0.39608000  1
  C  C865  1  0.26751000  0.78284000  0.39175000  1
  C  C866  1  0.26574000  0.77333000  0.41901000  1
  C  C867  1  0.10291000  0.63675000  0.15398000  1
  C  C868  1  0.08273000  0.59891000  0.14272000  1
  C  C869  1  0.06133000  0.57064000  0.10957000  1
  C  C870  1  0.07050000  0.71173000  0.12813000  1
  C  C871  1  0.03233000  0.70156000  0.11279000  1
  C  C872  1  0.01847000  0.72056000  0.12495000  1
  C  C873  1  0.21231000  0.84111000  0.27248000  1
  C  C874  1  0.22192000  0.87198000  0.30448000  1
  C  C875  1  0.25410000  0.89370000  0.33400000  1
  C  C876  1  0.11060000  0.69780000  0.22900000  1
  C  C877  1  0.14040000  0.60790000  0.26090000  1
  C  C878  1  0.17340000  0.62880000  0.23680000  1
  C  C879  1  0.18680000  0.64920000  0.21820000  1
  C  C880  1  0.15650000  0.63410000  0.25820000  1
  C  C881  1  0.14460000  0.57790000  0.24370000  1
  C  C882  1  0.47440000  0.93968000  0.70158000  1
  C  C883  1  0.44675000  0.91855000  0.66418000  1
  C  C884  1  0.44868000  0.92093000  0.63641000  1
  C  C885  1  0.41619000  0.89541000  0.60392000  1
  C  C886  1  0.39109000  0.87576000  0.60825000  1
  C  C887  1  0.35432000  0.84673000  0.58099000  1
  C  C888  1  0.48277000  0.94893000  0.84602000  1
  C  C889  1  0.45619000  0.94001000  0.85728000  1
  C  C890  1  0.46107000  0.95176000  0.89043000  1
  C  C891  1  0.58360000  0.94237000  0.87187000  1
  C  C892  1  0.58877000  0.91954000  0.88721000  1
  C  C893  1  0.59561000  0.89352000  0.87505000  1
  C  C894  1  0.56863000  0.93983000  0.72752000  1
  C  C895  1  0.56750000  0.91744000  0.69552000  1
  C  C896  1  0.55970000  0.92010000  0.66600000  1
  C  C897  1  0.46880000  0.88160000  0.77100000  1
  C  C898  1  0.34700000  0.87950000  0.73910000  1
  C  C899  1  0.39200000  0.93660000  0.76320000  1
  C  C900  1  0.43100000  0.96860000  0.78180000  1
  C  C901  1  0.37590000  0.89830000  0.74180000  1
  C  C902  1  0.33420000  0.90090000  0.75630000  1
  C  C903  1  0.76190000  0.06032000  0.53472000  1
  C  C904  1  0.74563000  0.08145000  0.52820000  1
  C  C905  1  0.71548000  0.07907000  0.52775000  1
  C  C906  1  0.70851000  0.10459000  0.52078000  1
  C  C907  1  0.73249000  0.12424000  0.51533000  1
  C  C908  1  0.73426000  0.15327000  0.50759000  1
  C  C909  1  0.89709000  0.05107000  0.53384000  1
  C  C910  1  0.91727000  0.05999000  0.51618000  1
  C  C911  1  0.93867000  0.04824000  0.50931000  1
  C  C912  1  0.92950000  0.05763000  0.64123000  1
  C  C913  1  0.96767000  0.08046000  0.66923000  1
  C  C914  1  0.98153000  0.10648000  0.70209000  1
  C  C915  1  0.78769000  0.06017000  0.62880000  1
  C  C916  1  0.77808000  0.08256000  0.65006000  1
  C  C917  1  0.74590000  0.07990000  0.63960000  1
  C  C918  1  0.88940000  0.11840000  0.58720000  1
  C  C919  1  0.85960000  0.12050000  0.46750000  1
  C  C920  1  0.82660000  0.06340000  0.45540000  1
  C  C921  1  0.81320000  0.03140000  0.46240000  1
  C  C922  1  0.84350000  0.10170000  0.47760000  1
  C  C923  1  0.85540000  0.09910000  0.43330000  1
  C  C924  1  0.46528000  0.52560000  0.22718000  1
  C  C925  1  0.47180000  0.55325000  0.21743000  1
  C  C926  1  0.47225000  0.55132000  0.18773000  1
  C  C927  1  0.47922000  0.58381000  0.18773000  1
  C  C928  1  0.48467000  0.60891000  0.21716000  1
  C  C929  1  0.49241000  0.64568000  0.22667000  1
  C  C930  1  0.46616000  0.51723000  0.36325000  1
  C  C931  1  0.48382000  0.54381000  0.40109000  1
  C  C932  1  0.49069000  0.53893000  0.42936000  1
  C  C933  1  0.35877000  0.41640000  0.28827000  1
  C  C934  1  0.33077000  0.41123000  0.29844000  1
  C  C935  1  0.29791000  0.40439000  0.27944000  1
  C  C936  1  0.37120000  0.43137000  0.15889000  1
  C  C937  1  0.34994000  0.43250000  0.12802000  1
  C  C938  1  0.36040000  0.44030000  0.10630000  1
  C  C939  1  0.41280000  0.53120000  0.30220000  1
  C  C940  1  0.53250000  0.65300000  0.39210000  1
  C  C941  1  0.54460000  0.60800000  0.37120000  1
  C  C942  1  0.53760000  0.56900000  0.35080000  1
  C  C943  1  0.52240000  0.62410000  0.36590000  1
  C  C944  1  0.56670000  0.66580000  0.42210000  1
  C  C945  1  0.29842000  0.23810000  0.77282000  1
  C  C946  1  0.33582000  0.25437000  0.78257000  1
  C  C947  1  0.36359000  0.28452000  0.81227000  1
  C  C948  1  0.39608000  0.29149000  0.81227000  1
  C  C949  1  0.39175000  0.26751000  0.78284000  1
  C  C950  1  0.41901000  0.26574000  0.77333000  1
  C  C951  1  0.15398000  0.10291000  0.63675000  1
  C  C952  1  0.14272000  0.08273000  0.59891000  1
  C  C953  1  0.10957000  0.06133000  0.57064000  1
  C  C954  1  0.12813000  0.07050000  0.71173000  1
  C  C955  1  0.11279000  0.03233000  0.70156000  1
  C  C956  1  0.12495000  0.01847000  0.72056000  1
  C  C957  1  0.27248000  0.21231000  0.84111000  1
  C  C958  1  0.30448000  0.22192000  0.87198000  1
  C  C959  1  0.33400000  0.25410000  0.89370000  1
  C  C960  1  0.22900000  0.11060000  0.69780000  1
  C  C961  1  0.26090000  0.14040000  0.60790000  1
  C  C962  1  0.23680000  0.17340000  0.62880000  1
  C  C963  1  0.21820000  0.18680000  0.64920000  1
  C  C964  1  0.25820000  0.15650000  0.63410000  1
  C  C965  1  0.24370000  0.14460000  0.57790000  1
  C  C966  1  0.70158000  0.47440000  0.93968000  1
  C  C967  1  0.66418000  0.44675000  0.91855000  1
  C  C968  1  0.63641000  0.44868000  0.92093000  1
  C  C969  1  0.60392000  0.41619000  0.89541000  1
  C  C970  1  0.60825000  0.39109000  0.87576000  1
  C  C971  1  0.58099000  0.35432000  0.84673000  1
  C  C972  1  0.84602000  0.48277000  0.94893000  1
  C  C973  1  0.85728000  0.45619000  0.94001000  1
  C  C974  1  0.89043000  0.46107000  0.95176000  1
  C  C975  1  0.87187000  0.58360000  0.94237000  1
  C  C976  1  0.88721000  0.58877000  0.91954000  1
  C  C977  1  0.87505000  0.59561000  0.89352000  1
  C  C978  1  0.72752000  0.56863000  0.93983000  1
  C  C979  1  0.69552000  0.56750000  0.91744000  1
  C  C980  1  0.66600000  0.55970000  0.92010000  1
  C  C981  1  0.77100000  0.46880000  0.88160000  1
  C  C982  1  0.73910000  0.34700000  0.87950000  1
  C  C983  1  0.76320000  0.39200000  0.93660000  1
  C  C984  1  0.78180000  0.43100000  0.96860000  1
  C  C985  1  0.74180000  0.37590000  0.89830000  1
  C  C986  1  0.75630000  0.33420000  0.90090000  1
  C  C987  1  0.53472000  0.76190000  0.06032000  1
  C  C988  1  0.52820000  0.74563000  0.08145000  1
  C  C989  1  0.52775000  0.71548000  0.07907000  1
  C  C990  1  0.52078000  0.70851000  0.10459000  1
  C  C991  1  0.51533000  0.73249000  0.12424000  1
  C  C992  1  0.50759000  0.73426000  0.15327000  1
  C  C993  1  0.53384000  0.89709000  0.05107000  1
  C  C994  1  0.51618000  0.91727000  0.05999000  1
  C  C995  1  0.50931000  0.93867000  0.04824000  1
  C  C996  1  0.64123000  0.92950000  0.05763000  1
  C  C997  1  0.66923000  0.96767000  0.08046000  1
  C  C998  1  0.70209000  0.98153000  0.10648000  1
  C  C999  1  0.62880000  0.78769000  0.06017000  1
  C  C1000  1  0.65006000  0.77808000  0.08256000  1
  C  C1001  1  0.63960000  0.74590000  0.07990000  1
  C  C1002  1  0.58720000  0.88940000  0.11840000  1
  C  C1003  1  0.46750000  0.85960000  0.12050000  1
  C  C1004  1  0.45540000  0.82660000  0.06340000  1
  C  C1005  1  0.46240000  0.81320000  0.03140000  1
  C  C1006  1  0.47760000  0.84350000  0.10170000  1
  C  C1007  1  0.43330000  0.85540000  0.09910000  1
  H  H1008  1  0.83317000  0.30059000  0.35912000  1
  H  H1009  1  0.83577000  0.31545000  0.42194000  1
  H  H1010  1  0.57464000  0.05601000  0.08583000  1
  H  H1011  1  0.74870000  0.03652000  0.14804000  1
  H  H1012  1  0.88940000  0.27715000  0.33529000  1
  H  H1013  1  0.82910000  0.15972000  0.18430000  1
  H  H1014  1  0.78673000  0.14158000  0.22511000  1
  H  H1015  1  0.70059000  0.24292000  0.39565000  1
  H  H1016  1  0.16683000  0.52595000  0.46742000  1
  H  H1017  1  0.16423000  0.58617000  0.47968000  1
  H  H1018  1  0.42536000  0.51119000  0.48137000  1
  H  H1019  1  0.25130000  0.39934000  0.28782000  1
  H  H1020  1  0.11060000  0.44589000  0.38775000  1
  H  H1021  1  0.17090000  0.35520000  0.33062000  1
  H  H1022  1  0.21327000  0.43838000  0.35485000  1
  H  H1023  1  0.29941000  0.69506000  0.54233000  1
  H  H1024  1  0.05853000  0.69941000  0.53258000  1
  H  H1025  1  0.10649000  0.68455000  0.52032000  1
  H  H1026  1  0.02982000  0.94399000  0.51863000  1
  H  H1027  1  0.11152000  0.96348000  0.71218000  1
  H  H1028  1  0.05814000  0.72285000  0.61225000  1
  H  H1029  1  0.02458000  0.84028000  0.66938000  1
  H  H1030  1  0.08353000  0.85842000  0.64515000  1
  H  H1031  1  0.15273000  0.75708000  0.45767000  1
  H  H1032  1  0.94147000  0.47405000  0.64088000  1
  H  H1033  1  0.89351000  0.41383000  0.57806000  1
  H  H1034  1  0.97018000  0.48881000  0.91417000  1
  H  H1035  1  0.88848000  0.60066000  0.85196000  1
  H  H1036  1  0.94186000  0.55411000  0.66471000  1
  H  H1037  1  0.97542000  0.64480000  0.81570000  1
  H  H1038  1  0.91647000  0.56162000  0.77489000  1
  H  H1039  1  0.84727000  0.30494000  0.60435000  1
  H  H1040  1  0.47405000  0.64088000  0.94147000  1
  H  H1041  1  0.41383000  0.57806000  0.89351000  1
  H  H1042  1  0.48881000  0.91417000  0.97018000  1
  H  H1043  1  0.60066000  0.85196000  0.88848000  1
  H  H1044  1  0.55411000  0.66471000  0.94186000  1
  H  H1045  1  0.64480000  0.81570000  0.97542000  1
  H  H1046  1  0.56162000  0.77489000  0.91647000  1
  H  H1047  1  0.30494000  0.60435000  0.84727000  1
  H  H1048  1  0.69941000  0.53258000  0.05853000  1
  H  H1049  1  0.68455000  0.52032000  0.10649000  1
  H  H1050  1  0.94399000  0.51863000  0.02982000  1
  H  H1051  1  0.96348000  0.71218000  0.11152000  1
  H  H1052  1  0.72285000  0.61225000  0.05814000  1
  H  H1053  1  0.84028000  0.66938000  0.02458000  1
  H  H1054  1  0.85842000  0.64515000  0.08353000  1
  H  H1055  1  0.75708000  0.45767000  0.15273000  1
  H  H1056  1  0.52595000  0.46742000  0.16683000  1
  H  H1057  1  0.58617000  0.47968000  0.16423000  1
  H  H1058  1  0.51119000  0.48137000  0.42536000  1
  H  H1059  1  0.39934000  0.28782000  0.25130000  1
  H  H1060  1  0.44589000  0.38775000  0.11060000  1
  H  H1061  1  0.35520000  0.33062000  0.17090000  1
  H  H1062  1  0.43838000  0.35485000  0.21327000  1
  H  H1063  1  0.69506000  0.54233000  0.29941000  1
  H  H1064  1  0.30059000  0.35912000  0.83317000  1
  H  H1065  1  0.31545000  0.42194000  0.83577000  1
  H  H1066  1  0.05601000  0.08583000  0.57464000  1
  H  H1067  1  0.03652000  0.14804000  0.74870000  1
  H  H1068  1  0.27715000  0.33529000  0.88940000  1
  H  H1069  1  0.15972000  0.18430000  0.82910000  1
  H  H1070  1  0.14158000  0.22511000  0.78673000  1
  H  H1071  1  0.24292000  0.39565000  0.70059000  1
  H  H1072  1  0.53258000  0.05853000  0.69941000  1
  H  H1073  1  0.52032000  0.10649000  0.68455000  1
  H  H1074  1  0.51863000  0.02982000  0.94399000  1
  H  H1075  1  0.71218000  0.11152000  0.96348000  1
  H  H1076  1  0.61225000  0.05814000  0.72285000  1
  H  H1077  1  0.66938000  0.02458000  0.84028000  1
  H  H1078  1  0.64515000  0.08353000  0.85842000  1
  H  H1079  1  0.45767000  0.15273000  0.75708000  1
  H  H1080  1  0.64088000  0.94147000  0.47405000  1
  H  H1081  1  0.57806000  0.89351000  0.41383000  1
  H  H1082  1  0.91417000  0.97018000  0.48881000  1
  H  H1083  1  0.85196000  0.88848000  0.60066000  1
  H  H1084  1  0.66471000  0.94186000  0.55411000  1
  H  H1085  1  0.81570000  0.97542000  0.64480000  1
  H  H1086  1  0.77489000  0.91647000  0.56162000  1
  H  H1087  1  0.60435000  0.84727000  0.30494000  1
  H  H1088  1  0.35912000  0.83317000  0.30059000  1
  H  H1089  1  0.42194000  0.83577000  0.31545000  1
  H  H1090  1  0.08583000  0.57464000  0.05601000  1
  H  H1091  1  0.14804000  0.74870000  0.03652000  1
  H  H1092  1  0.33529000  0.88940000  0.27715000  1
  H  H1093  1  0.18430000  0.82910000  0.15972000  1
  H  H1094  1  0.22511000  0.78673000  0.14158000  1
  H  H1095  1  0.39565000  0.70059000  0.24292000  1
  H  H1096  1  0.46742000  0.16683000  0.52595000  1
  H  H1097  1  0.47968000  0.16423000  0.58617000  1
  H  H1098  1  0.48137000  0.42536000  0.51119000  1
  H  H1099  1  0.28782000  0.25130000  0.39934000  1
  H  H1100  1  0.38775000  0.11060000  0.44589000  1
  H  H1101  1  0.33062000  0.17090000  0.35520000  1
  H  H1102  1  0.35485000  0.21327000  0.43838000  1
  H  H1103  1  0.54233000  0.29941000  0.69506000  1
  H  H1104  1  0.83317000  0.53258000  0.47405000  1
  H  H1105  1  0.83577000  0.52032000  0.41383000  1
  H  H1106  1  0.57464000  0.51863000  0.48881000  1
  H  H1107  1  0.74870000  0.71218000  0.60066000  1
  H  H1108  1  0.88940000  0.61225000  0.55411000  1
  H  H1109  1  0.82910000  0.66938000  0.64480000  1
  H  H1110  1  0.78673000  0.64515000  0.56162000  1
  H  H1111  1  0.70059000  0.45767000  0.30494000  1
  H  H1112  1  0.16683000  0.64088000  0.69941000  1
  H  H1113  1  0.16423000  0.57806000  0.68455000  1
  H  H1114  1  0.42536000  0.91417000  0.94399000  1
  H  H1115  1  0.25130000  0.85196000  0.96348000  1
  H  H1116  1  0.11060000  0.66471000  0.72285000  1
  H  H1117  1  0.17090000  0.81570000  0.84028000  1
  H  H1118  1  0.21327000  0.77489000  0.85842000  1
  H  H1119  1  0.29941000  0.60435000  0.75708000  1
  H  H1120  1  0.05853000  0.35912000  0.52595000  1
  H  H1121  1  0.10649000  0.42194000  0.58617000  1
  H  H1122  1  0.02982000  0.08583000  0.51119000  1
  H  H1123  1  0.11152000  0.14804000  0.39934000  1
  H  H1124  1  0.05814000  0.33529000  0.44589000  1
  H  H1125  1  0.02458000  0.18430000  0.35520000  1
  H  H1126  1  0.08353000  0.22511000  0.43838000  1
  H  H1127  1  0.15273000  0.39565000  0.69506000  1
  H  H1128  1  0.94147000  0.46742000  0.30059000  1
  H  H1129  1  0.89351000  0.47968000  0.31545000  1
  H  H1130  1  0.97018000  0.48137000  0.05601000  1
  H  H1131  1  0.88848000  0.28782000  0.03652000  1
  H  H1132  1  0.94186000  0.38775000  0.27715000  1
  H  H1133  1  0.97542000  0.33062000  0.15972000  1
  H  H1134  1  0.91647000  0.35485000  0.14158000  1
  H  H1135  1  0.84727000  0.54233000  0.24292000  1
  H  H1136  1  0.47405000  0.83317000  0.53258000  1
  H  H1137  1  0.41383000  0.83577000  0.52032000  1
  H  H1138  1  0.48881000  0.57464000  0.51863000  1
  H  H1139  1  0.60066000  0.74870000  0.71218000  1
  H  H1140  1  0.55411000  0.88940000  0.61225000  1
  H  H1141  1  0.64480000  0.82910000  0.66938000  1
  H  H1142  1  0.56162000  0.78673000  0.64515000  1
  H  H1143  1  0.30494000  0.70059000  0.45767000  1
  H  H1144  1  0.69941000  0.16683000  0.64088000  1
  H  H1145  1  0.68455000  0.16423000  0.57806000  1
  H  H1146  1  0.94399000  0.42536000  0.91417000  1
  H  H1147  1  0.96348000  0.25130000  0.85196000  1
  H  H1148  1  0.72285000  0.11060000  0.66471000  1
  H  H1149  1  0.84028000  0.17090000  0.81570000  1
  H  H1150  1  0.85842000  0.21327000  0.77489000  1
  H  H1151  1  0.75708000  0.29941000  0.60435000  1
  H  H1152  1  0.52595000  0.05853000  0.35912000  1
  H  H1153  1  0.58617000  0.10649000  0.42194000  1
  H  H1154  1  0.51119000  0.02982000  0.08583000  1
  H  H1155  1  0.39934000  0.11152000  0.14804000  1
  H  H1156  1  0.44589000  0.05814000  0.33529000  1
  H  H1157  1  0.35520000  0.02458000  0.18430000  1
  H  H1158  1  0.43838000  0.08353000  0.22511000  1
  H  H1159  1  0.69506000  0.15273000  0.39565000  1
  H  H1160  1  0.30059000  0.94147000  0.46742000  1
  H  H1161  1  0.31545000  0.89351000  0.47968000  1
  H  H1162  1  0.05601000  0.97018000  0.48137000  1
  H  H1163  1  0.03652000  0.88848000  0.28782000  1
  H  H1164  1  0.27715000  0.94186000  0.38775000  1
  H  H1165  1  0.15972000  0.97542000  0.33062000  1
  H  H1166  1  0.14158000  0.91647000  0.35485000  1
  H  H1167  1  0.24292000  0.84727000  0.54233000  1
  H  H1168  1  0.53258000  0.47405000  0.83317000  1
  H  H1169  1  0.52032000  0.41383000  0.83577000  1
  H  H1170  1  0.51863000  0.48881000  0.57464000  1
  H  H1171  1  0.71218000  0.60066000  0.74870000  1
  H  H1172  1  0.61225000  0.55411000  0.88940000  1
  H  H1173  1  0.66938000  0.64480000  0.82910000  1
  H  H1174  1  0.64515000  0.56162000  0.78673000  1
  H  H1175  1  0.45767000  0.30494000  0.70059000  1
  H  H1176  1  0.64088000  0.69941000  0.16683000  1
  H  H1177  1  0.57806000  0.68455000  0.16423000  1
  H  H1178  1  0.91417000  0.94399000  0.42536000  1
  H  H1179  1  0.85196000  0.96348000  0.25130000  1
  H  H1180  1  0.66471000  0.72285000  0.11060000  1
  H  H1181  1  0.81570000  0.84028000  0.17090000  1
  H  H1182  1  0.77489000  0.85842000  0.21327000  1
  H  H1183  1  0.60435000  0.75708000  0.29941000  1
  H  H1184  1  0.35912000  0.52595000  0.05853000  1
  H  H1185  1  0.42194000  0.58617000  0.10649000  1
  H  H1186  1  0.08583000  0.51119000  0.02982000  1
  H  H1187  1  0.14804000  0.39934000  0.11152000  1
  H  H1188  1  0.33529000  0.44589000  0.05814000  1
  H  H1189  1  0.18430000  0.35520000  0.02458000  1
  H  H1190  1  0.22511000  0.43838000  0.08353000  1
  H  H1191  1  0.39565000  0.69506000  0.15273000  1
  H  H1192  1  0.46742000  0.30059000  0.94147000  1
  H  H1193  1  0.47968000  0.31545000  0.89351000  1
  H  H1194  1  0.48137000  0.05601000  0.97018000  1
  H  H1195  1  0.28782000  0.03652000  0.88848000  1
  H  H1196  1  0.38775000  0.27715000  0.94186000  1
  H  H1197  1  0.33062000  0.15972000  0.97542000  1
  H  H1198  1  0.35485000  0.14158000  0.91647000  1
  H  H1199  1  0.54233000  0.24292000  0.84727000  1
  H  H1200  1  0.16683000  0.69941000  0.64088000  1
  H  H1201  1  0.16423000  0.68455000  0.57806000  1
  H  H1202  1  0.42536000  0.94399000  0.91417000  1
  H  H1203  1  0.25130000  0.96348000  0.85196000  1
  H  H1204  1  0.11060000  0.72285000  0.66471000  1
  H  H1205  1  0.17090000  0.84028000  0.81570000  1
  H  H1206  1  0.21327000  0.85842000  0.77489000  1
  H  H1207  1  0.29941000  0.75708000  0.60435000  1
  H  H1208  1  0.83317000  0.47405000  0.53258000  1
  H  H1209  1  0.83577000  0.41383000  0.52032000  1
  H  H1210  1  0.57464000  0.48881000  0.51863000  1
  H  H1211  1  0.74870000  0.60066000  0.71218000  1
  H  H1212  1  0.88940000  0.55411000  0.61225000  1
  H  H1213  1  0.82910000  0.64480000  0.66938000  1
  H  H1214  1  0.78673000  0.56162000  0.64515000  1
  H  H1215  1  0.70059000  0.30494000  0.45767000  1
  H  H1216  1  0.94147000  0.30059000  0.46742000  1
  H  H1217  1  0.89351000  0.31545000  0.47968000  1
  H  H1218  1  0.97018000  0.05601000  0.48137000  1
  H  H1219  1  0.88848000  0.03652000  0.28782000  1
  H  H1220  1  0.94186000  0.27715000  0.38775000  1
  H  H1221  1  0.97542000  0.15972000  0.33062000  1
  H  H1222  1  0.91647000  0.14158000  0.35485000  1
  H  H1223  1  0.84727000  0.24292000  0.54233000  1
  H  H1224  1  0.05853000  0.52595000  0.35912000  1
  H  H1225  1  0.10649000  0.58617000  0.42194000  1
  H  H1226  1  0.02982000  0.51119000  0.08583000  1
  H  H1227  1  0.11152000  0.39934000  0.14804000  1
  H  H1228  1  0.05814000  0.44589000  0.33529000  1
  H  H1229  1  0.02458000  0.35520000  0.18430000  1
  H  H1230  1  0.08353000  0.43838000  0.22511000  1
  H  H1231  1  0.15273000  0.69506000  0.39565000  1
  H  H1232  1  0.52595000  0.35912000  0.05853000  1
  H  H1233  1  0.58617000  0.42194000  0.10649000  1
  H  H1234  1  0.51119000  0.08583000  0.02982000  1
  H  H1235  1  0.39934000  0.14804000  0.11152000  1
  H  H1236  1  0.44589000  0.33529000  0.05814000  1
  H  H1237  1  0.35520000  0.18430000  0.02458000  1
  H  H1238  1  0.43838000  0.22511000  0.08353000  1
  H  H1239  1  0.69506000  0.39565000  0.15273000  1
  H  H1240  1  0.30059000  0.46742000  0.94147000  1
  H  H1241  1  0.31545000  0.47968000  0.89351000  1
  H  H1242  1  0.05601000  0.48137000  0.97018000  1
  H  H1243  1  0.03652000  0.28782000  0.88848000  1
  H  H1244  1  0.27715000  0.38775000  0.94186000  1
  H  H1245  1  0.15972000  0.33062000  0.97542000  1
  H  H1246  1  0.14158000  0.35485000  0.91647000  1
  H  H1247  1  0.24292000  0.54233000  0.84727000  1
  H  H1248  1  0.47405000  0.53258000  0.83317000  1
  H  H1249  1  0.41383000  0.52032000  0.83577000  1
  H  H1250  1  0.48881000  0.51863000  0.57464000  1
  H  H1251  1  0.60066000  0.71218000  0.74870000  1
  H  H1252  1  0.55411000  0.61225000  0.88940000  1
  H  H1253  1  0.64480000  0.66938000  0.82910000  1
  H  H1254  1  0.56162000  0.64515000  0.78673000  1
  H  H1255  1  0.30494000  0.45767000  0.70059000  1
  H  H1256  1  0.69941000  0.64088000  0.16683000  1
  H  H1257  1  0.68455000  0.57806000  0.16423000  1
  H  H1258  1  0.94399000  0.91417000  0.42536000  1
  H  H1259  1  0.96348000  0.85196000  0.25130000  1
  H  H1260  1  0.72285000  0.66471000  0.11060000  1
  H  H1261  1  0.84028000  0.81570000  0.17090000  1
  H  H1262  1  0.85842000  0.77489000  0.21327000  1
  H  H1263  1  0.75708000  0.60435000  0.29941000  1
  H  H1264  1  0.46742000  0.94147000  0.30059000  1
  H  H1265  1  0.47968000  0.89351000  0.31545000  1
  H  H1266  1  0.48137000  0.97018000  0.05601000  1
  H  H1267  1  0.28782000  0.88848000  0.03652000  1
  H  H1268  1  0.38775000  0.94186000  0.27715000  1
  H  H1269  1  0.33062000  0.97542000  0.15972000  1
  H  H1270  1  0.35485000  0.91647000  0.14158000  1
  H  H1271  1  0.54233000  0.84727000  0.24292000  1
  H  H1272  1  0.35912000  0.05853000  0.52595000  1
  H  H1273  1  0.42194000  0.10649000  0.58617000  1
  H  H1274  1  0.08583000  0.02982000  0.51119000  1
  H  H1275  1  0.14804000  0.11152000  0.39934000  1
  H  H1276  1  0.33529000  0.05814000  0.44589000  1
  H  H1277  1  0.18430000  0.02458000  0.35520000  1
  H  H1278  1  0.22511000  0.08353000  0.43838000  1
  H  H1279  1  0.39565000  0.15273000  0.69506000  1
  H  H1280  1  0.64088000  0.16683000  0.69941000  1
  H  H1281  1  0.57806000  0.16423000  0.68455000  1
  H  H1282  1  0.91417000  0.42536000  0.94399000  1
  H  H1283  1  0.85196000  0.25130000  0.96348000  1
  H  H1284  1  0.66471000  0.11060000  0.72285000  1
  H  H1285  1  0.81570000  0.17090000  0.84028000  1
  H  H1286  1  0.77489000  0.21327000  0.85842000  1
  H  H1287  1  0.60435000  0.29941000  0.75708000  1
  H  H1288  1  0.53258000  0.83317000  0.47405000  1
  H  H1289  1  0.52032000  0.83577000  0.41383000  1
  H  H1290  1  0.51863000  0.57464000  0.48881000  1
  H  H1291  1  0.71218000  0.74870000  0.60066000  1
  H  H1292  1  0.61225000  0.88940000  0.55411000  1
  H  H1293  1  0.66938000  0.82910000  0.64480000  1
  H  H1294  1  0.64515000  0.78673000  0.56162000  1
  H  H1295  1  0.45767000  0.70059000  0.30494000  1
  H  H1296  1  0.16683000  0.46742000  0.52595000  1
  H  H1297  1  0.16423000  0.47968000  0.58617000  1
  H  H1298  1  0.42536000  0.48137000  0.51119000  1
  H  H1299  1  0.25130000  0.28782000  0.39934000  1
  H  H1300  1  0.11060000  0.38775000  0.44589000  1
  H  H1301  1  0.17090000  0.33062000  0.35520000  1
  H  H1302  1  0.21327000  0.35485000  0.43838000  1
  H  H1303  1  0.29941000  0.54233000  0.69506000  1
  H  H1304  1  0.83317000  0.35912000  0.30059000  1
  H  H1305  1  0.83577000  0.42194000  0.31545000  1
  H  H1306  1  0.57464000  0.08583000  0.05601000  1
  H  H1307  1  0.74870000  0.14804000  0.03652000  1
  H  H1308  1  0.88940000  0.33529000  0.27715000  1
  H  H1309  1  0.82910000  0.18430000  0.15972000  1
  H  H1310  1  0.78673000  0.22511000  0.14158000  1
  H  H1311  1  0.70059000  0.39565000  0.24292000  1
  H  H1312  1  0.94147000  0.64088000  0.47405000  1
  H  H1313  1  0.89351000  0.57806000  0.41383000  1
  H  H1314  1  0.97018000  0.91417000  0.48881000  1
  H  H1315  1  0.88848000  0.85196000  0.60066000  1
  H  H1316  1  0.94186000  0.66471000  0.55411000  1
  H  H1317  1  0.97542000  0.81570000  0.64480000  1
  H  H1318  1  0.91647000  0.77489000  0.56162000  1
  H  H1319  1  0.84727000  0.60435000  0.30494000  1
  H  H1320  1  0.05853000  0.53258000  0.69941000  1
  H  H1321  1  0.10649000  0.52032000  0.68455000  1
  H  H1322  1  0.02982000  0.51863000  0.94399000  1
  H  H1323  1  0.11152000  0.71218000  0.96348000  1
  H  H1324  1  0.05814000  0.61225000  0.72285000  1
  H  H1325  1  0.02458000  0.66938000  0.84028000  1
  H  H1326  1  0.08353000  0.64515000  0.85842000  1
  H  H1327  1  0.15273000  0.45767000  0.75708000  1
  H  H1328  1  0.52595000  0.16683000  0.46742000  1
  H  H1329  1  0.58617000  0.16423000  0.47968000  1
  H  H1330  1  0.51119000  0.42536000  0.48137000  1
  H  H1331  1  0.39934000  0.25130000  0.28782000  1
  H  H1332  1  0.44589000  0.11060000  0.38775000  1
  H  H1333  1  0.35520000  0.17090000  0.33062000  1
  H  H1334  1  0.43838000  0.21327000  0.35485000  1
  H  H1335  1  0.69506000  0.29941000  0.54233000  1
  H  H1336  1  0.30059000  0.83317000  0.35912000  1
  H  H1337  1  0.31545000  0.83577000  0.42194000  1
  H  H1338  1  0.05601000  0.57464000  0.08583000  1
  H  H1339  1  0.03652000  0.74870000  0.14804000  1
  H  H1340  1  0.27715000  0.88940000  0.33529000  1
  H  H1341  1  0.15972000  0.82910000  0.18430000  1
  H  H1342  1  0.14158000  0.78673000  0.22511000  1
  H  H1343  1  0.24292000  0.70059000  0.39565000  1
  H  H1344  1  0.47405000  0.94147000  0.64088000  1
  H  H1345  1  0.41383000  0.89351000  0.57806000  1
  H  H1346  1  0.48881000  0.97018000  0.91417000  1
  H  H1347  1  0.60066000  0.88848000  0.85196000  1
  H  H1348  1  0.55411000  0.94186000  0.66471000  1
  H  H1349  1  0.64480000  0.97542000  0.81570000  1
  H  H1350  1  0.56162000  0.91647000  0.77489000  1
  H  H1351  1  0.30494000  0.84727000  0.60435000  1
  H  H1352  1  0.69941000  0.05853000  0.53258000  1
  H  H1353  1  0.68455000  0.10649000  0.52032000  1
  H  H1354  1  0.94399000  0.02982000  0.51863000  1
  H  H1355  1  0.96348000  0.11152000  0.71218000  1
  H  H1356  1  0.72285000  0.05814000  0.61225000  1
  H  H1357  1  0.84028000  0.02458000  0.66938000  1
  H  H1358  1  0.85842000  0.08353000  0.64515000  1
  H  H1359  1  0.75708000  0.15273000  0.45767000  1
  H  H1360  1  0.46742000  0.52595000  0.16683000  1
  H  H1361  1  0.47968000  0.58617000  0.16423000  1
  H  H1362  1  0.48137000  0.51119000  0.42536000  1
  H  H1363  1  0.28782000  0.39934000  0.25130000  1
  H  H1364  1  0.38775000  0.44589000  0.11060000  1
  H  H1365  1  0.33062000  0.35520000  0.17090000  1
  H  H1366  1  0.35485000  0.43838000  0.21327000  1
  H  H1367  1  0.54233000  0.69506000  0.29941000  1
  H  H1368  1  0.35912000  0.30059000  0.83317000  1
  H  H1369  1  0.42194000  0.31545000  0.83577000  1
  H  H1370  1  0.08583000  0.05601000  0.57464000  1
  H  H1371  1  0.14804000  0.03652000  0.74870000  1
  H  H1372  1  0.33529000  0.27715000  0.88940000  1
  H  H1373  1  0.18430000  0.15972000  0.82910000  1
  H  H1374  1  0.22511000  0.14158000  0.78673000  1
  H  H1375  1  0.39565000  0.24292000  0.70059000  1
  H  H1376  1  0.64088000  0.47405000  0.94147000  1
  H  H1377  1  0.57806000  0.41383000  0.89351000  1
  H  H1378  1  0.91417000  0.48881000  0.97018000  1
  H  H1379  1  0.85196000  0.60066000  0.88848000  1
  H  H1380  1  0.66471000  0.55411000  0.94186000  1
  H  H1381  1  0.81570000  0.64480000  0.97542000  1
  H  H1382  1  0.77489000  0.56162000  0.91647000  1
  H  H1383  1  0.60435000  0.30494000  0.84727000  1
  H  H1384  1  0.53258000  0.69941000  0.05853000  1
  H  H1385  1  0.52032000  0.68455000  0.10649000  1
  H  H1386  1  0.51863000  0.94399000  0.02982000  1
  H  H1387  1  0.71218000  0.96348000  0.11152000  1
  H  H1388  1  0.61225000  0.72285000  0.05814000  1
  H  H1389  1  0.66938000  0.84028000  0.02458000  1
  H  H1390  1  0.64515000  0.85842000  0.08353000  1
  H  H1391  1  0.45767000  0.75708000  0.15273000  1
  O  O1392  1  0.79351000  0.25423000  0.29014000  1
  O  O1393  1  0.74431000  0.20884000  0.27779000  1
  O  O1394  1  0.74576000  0.23856000  0.40818000  1
  O  O1395  1  0.79306000  0.29153000  0.44979000  1
  O  O1396  1  0.65696000  0.12500000  0.18626000  1
  O  O1397  1  0.64507000  0.09610000  0.13019000  1
  O  O1398  1  0.68968000  0.07801000  0.11353000  1
  O  O1399  1  0.74209000  0.09146000  0.15505000  1
  O  O1400  1  0.82221000  0.18043000  0.24896000  1
  O  O1401  1  0.83602000  0.23745000  0.27259000  1
  O  O1402  1  0.76325000  0.18728000  0.22717000  1
  O  O1403  1  0.71406000  0.12790000  0.18064000  1
  O  O1404  1  0.80842000  0.13904000  0.18430000  1
  O  O1405  1  0.76605000  0.12090000  0.22511000  1
  O  O1406  1  0.67991000  0.22224000  0.39565000  1
  O  O1407  1  0.71298000  0.14014000  0.24374000  1
  O  O1408  1  0.69610000  0.08600000  0.21210000  1
  O  O1409  1  0.67879000  0.18961000  0.23296000  1
  O  O1410  1  0.20649000  0.49663000  0.46072000  1
  O  O1411  1  0.25569000  0.53348000  0.46453000  1
  O  O1412  1  0.25424000  0.66242000  0.49280000  1
  O  O1413  1  0.20694000  0.65673000  0.49847000  1
  O  O1414  1  0.34304000  0.52930000  0.46804000  1
  O  O1415  1  0.35493000  0.48512000  0.45103000  1
  O  O1416  1  0.31032000  0.42385000  0.38833000  1
  O  O1417  1  0.25791000  0.41296000  0.34937000  1
  O  O1418  1  0.17779000  0.42675000  0.35822000  1
  O  O1419  1  0.16398000  0.43657000  0.40143000  1
  O  O1420  1  0.23675000  0.46392000  0.42403000  1
  O  O1421  1  0.28594000  0.46658000  0.41384000  1
  O  O1422  1  0.19158000  0.37588000  0.33062000  1
  O  O1423  1  0.23395000  0.45906000  0.35485000  1
  O  O1424  1  0.32009000  0.71574000  0.54233000  1
  O  O1425  1  0.28702000  0.53076000  0.42716000  1
  O  O1426  1  0.30390000  0.51600000  0.38990000  1
  O  O1427  1  0.32121000  0.55417000  0.51082000  1
  O  O1428  1  0.03591000  0.74577000  0.53928000  1
  O  O1429  1  0.06895000  0.79116000  0.53547000  1
  O  O1430  1  0.16962000  0.76144000  0.50720000  1
  O  O1431  1  0.15826000  0.70847000  0.50153000  1
  O  O1432  1  0.06126000  0.87500000  0.53196000  1
  O  O1433  1  0.03409000  0.90390000  0.54897000  1
  O  O1434  1  0.03552000  0.92199000  0.61167000  1
  O  O1435  1  0.06359000  0.90854000  0.65063000  1
  O  O1436  1  0.06853000  0.81957000  0.64178000  1
  O  O1437  1  0.03514000  0.76255000  0.59857000  1
  O  O1438  1  0.03989000  0.81272000  0.57597000  1
  O  O1439  1  0.05274000  0.87210000  0.58616000  1
  O  O1440  1  0.04526000  0.86096000  0.66938000  1
  O  O1441  1  0.10421000  0.87910000  0.64515000  1
  O  O1442  1  0.17341000  0.77776000  0.45767000  1
  O  O1443  1  0.10360000  0.85986000  0.57284000  1
  O  O1444  1  0.12610000  0.91400000  0.61010000  1
  O  O1445  1  0.04335000  0.81039000  0.48918000  1
  O  O1446  1  0.96409000  0.50337000  0.70986000  1
  O  O1447  1  0.93105000  0.46652000  0.72221000  1
  O  O1448  1  0.83038000  0.33758000  0.59182000  1
  O  O1449  1  0.84174000  0.34327000  0.55021000  1
  O  O1450  1  0.93874000  0.47070000  0.81374000  1
  O  O1451  1  0.96591000  0.51488000  0.86981000  1
  O  O1452  1  0.96448000  0.57615000  0.88647000  1
  O  O1453  1  0.93641000  0.58704000  0.84495000  1
  O  O1454  1  0.93147000  0.57325000  0.75104000  1
  O  O1455  1  0.96486000  0.56343000  0.72741000  1
  O  O1456  1  0.96011000  0.53608000  0.77283000  1
  O  O1457  1  0.94726000  0.53342000  0.81936000  1
  O  O1458  1  0.95474000  0.62412000  0.81570000  1
  O  O1459  1  0.89579000  0.54094000  0.77489000  1
  O  O1460  1  0.82659000  0.28426000  0.60435000  1
  O  O1461  1  0.89640000  0.46924000  0.75626000  1
  O  O1462  1  0.87390000  0.48400000  0.78790000  1
  O  O1463  1  0.95665000  0.44583000  0.76704000  1
  O  O1464  1  0.50337000  0.70986000  0.96409000  1
  O  O1465  1  0.46652000  0.72221000  0.93105000  1
  O  O1466  1  0.33758000  0.59182000  0.83038000  1
  O  O1467  1  0.34327000  0.55021000  0.84174000  1
  O  O1468  1  0.47070000  0.81374000  0.93874000  1
  O  O1469  1  0.51488000  0.86981000  0.96591000  1
  O  O1470  1  0.57615000  0.88647000  0.96448000  1
  O  O1471  1  0.58704000  0.84495000  0.93641000  1
  O  O1472  1  0.57325000  0.75104000  0.93147000  1
  O  O1473  1  0.56343000  0.72741000  0.96486000  1
  O  O1474  1  0.53608000  0.77283000  0.96011000  1
  O  O1475  1  0.53342000  0.81936000  0.94726000  1
  O  O1476  1  0.62412000  0.81570000  0.95474000  1
  O  O1477  1  0.54094000  0.77489000  0.89579000  1
  O  O1478  1  0.28426000  0.60435000  0.82659000  1
  O  O1479  1  0.46924000  0.75626000  0.89640000  1
  O  O1480  1  0.48400000  0.78790000  0.87390000  1
  O  O1481  1  0.44583000  0.76704000  0.95665000  1
  O  O1482  1  0.74577000  0.53928000  0.03591000  1
  O  O1483  1  0.79116000  0.53547000  0.06895000  1
  O  O1484  1  0.76144000  0.50720000  0.16962000  1
  O  O1485  1  0.70847000  0.50153000  0.15826000  1
  O  O1486  1  0.87500000  0.53196000  0.06126000  1
  O  O1487  1  0.90390000  0.54897000  0.03409000  1
  O  O1488  1  0.92199000  0.61167000  0.03552000  1
  O  O1489  1  0.90854000  0.65063000  0.06359000  1
  O  O1490  1  0.81957000  0.64178000  0.06853000  1
  O  O1491  1  0.76255000  0.59857000  0.03514000  1
  O  O1492  1  0.81272000  0.57597000  0.03989000  1
  O  O1493  1  0.87210000  0.58616000  0.05274000  1
  O  O1494  1  0.86096000  0.66938000  0.04526000  1
  O  O1495  1  0.87910000  0.64515000  0.10421000  1
  O  O1496  1  0.77776000  0.45767000  0.17341000  1
  O  O1497  1  0.85986000  0.57284000  0.10360000  1
  O  O1498  1  0.91400000  0.61010000  0.12610000  1
  O  O1499  1  0.81039000  0.48918000  0.04335000  1
  O  O1500  1  0.49663000  0.46072000  0.20649000  1
  O  O1501  1  0.53348000  0.46453000  0.25569000  1
  O  O1502  1  0.66242000  0.49280000  0.25424000  1
  O  O1503  1  0.65673000  0.49847000  0.20694000  1
  O  O1504  1  0.52930000  0.46804000  0.34304000  1
  O  O1505  1  0.48512000  0.45103000  0.35493000  1
  O  O1506  1  0.42385000  0.38833000  0.31032000  1
  O  O1507  1  0.41296000  0.34937000  0.25791000  1
  O  O1508  1  0.42675000  0.35822000  0.17779000  1
  O  O1509  1  0.43657000  0.40143000  0.16398000  1
  O  O1510  1  0.46392000  0.42403000  0.23675000  1
  O  O1511  1  0.46658000  0.41384000  0.28594000  1
  O  O1512  1  0.37588000  0.33062000  0.19158000  1
  O  O1513  1  0.45906000  0.35485000  0.23395000  1
  O  O1514  1  0.71574000  0.54233000  0.32009000  1
  O  O1515  1  0.53076000  0.42716000  0.28702000  1
  O  O1516  1  0.51600000  0.38990000  0.30390000  1
  O  O1517  1  0.55417000  0.51082000  0.32121000  1
  O  O1518  1  0.25423000  0.29014000  0.79351000  1
  O  O1519  1  0.20884000  0.27779000  0.74431000  1
  O  O1520  1  0.23856000  0.40818000  0.74576000  1
  O  O1521  1  0.29153000  0.44979000  0.79306000  1
  O  O1522  1  0.12500000  0.18626000  0.65696000  1
  O  O1523  1  0.09610000  0.13019000  0.64507000  1
  O  O1524  1  0.07801000  0.11353000  0.68968000  1
  O  O1525  1  0.09146000  0.15505000  0.74209000  1
  O  O1526  1  0.18043000  0.24896000  0.82221000  1
  O  O1527  1  0.23745000  0.27259000  0.83602000  1
  O  O1528  1  0.18728000  0.22717000  0.76325000  1
  O  O1529  1  0.12790000  0.18064000  0.71406000  1
  O  O1530  1  0.13904000  0.18430000  0.80842000  1
  O  O1531  1  0.12090000  0.22511000  0.76605000  1
  O  O1532  1  0.22224000  0.39565000  0.67991000  1
  O  O1533  1  0.14014000  0.24374000  0.71298000  1
  O  O1534  1  0.08600000  0.21210000  0.69610000  1
  O  O1535  1  0.18961000  0.23296000  0.67879000  1
  O  O1536  1  0.53928000  0.03591000  0.74577000  1
  O  O1537  1  0.53547000  0.06895000  0.79116000  1
  O  O1538  1  0.50720000  0.16962000  0.76144000  1
  O  O1539  1  0.50153000  0.15826000  0.70847000  1
  O  O1540  1  0.53196000  0.06126000  0.87500000  1
  O  O1541  1  0.54897000  0.03409000  0.90390000  1
  O  O1542  1  0.61167000  0.03552000  0.92199000  1
  O  O1543  1  0.65063000  0.06359000  0.90854000  1
  O  O1544  1  0.64178000  0.06853000  0.81957000  1
  O  O1545  1  0.59857000  0.03514000  0.76255000  1
  O  O1546  1  0.57597000  0.03989000  0.81272000  1
  O  O1547  1  0.58616000  0.05274000  0.87210000  1
  O  O1548  1  0.66938000  0.04526000  0.86096000  1
  O  O1549  1  0.64515000  0.10421000  0.87910000  1
  O  O1550  1  0.45767000  0.17341000  0.77776000  1
  O  O1551  1  0.57284000  0.10360000  0.85986000  1
  O  O1552  1  0.61010000  0.12610000  0.91400000  1
  O  O1553  1  0.48918000  0.04335000  0.81039000  1
  O  O1554  1  0.70986000  0.96409000  0.50337000  1
  O  O1555  1  0.72221000  0.93105000  0.46652000  1
  O  O1556  1  0.59182000  0.83038000  0.33758000  1
  O  O1557  1  0.55021000  0.84174000  0.34327000  1
  O  O1558  1  0.81374000  0.93874000  0.47070000  1
  O  O1559  1  0.86981000  0.96591000  0.51488000  1
  O  O1560  1  0.88647000  0.96448000  0.57615000  1
  O  O1561  1  0.84495000  0.93641000  0.58704000  1
  O  O1562  1  0.75104000  0.93147000  0.57325000  1
  O  O1563  1  0.72741000  0.96486000  0.56343000  1
  O  O1564  1  0.77283000  0.96011000  0.53608000  1
  O  O1565  1  0.81936000  0.94726000  0.53342000  1
  O  O1566  1  0.81570000  0.95474000  0.62412000  1
  O  O1567  1  0.77489000  0.89579000  0.54094000  1
  O  O1568  1  0.60435000  0.82659000  0.28426000  1
  O  O1569  1  0.75626000  0.89640000  0.46924000  1
  O  O1570  1  0.78790000  0.87390000  0.48400000  1
  O  O1571  1  0.76704000  0.95665000  0.44583000  1
  O  O1572  1  0.29014000  0.79351000  0.25423000  1
  O  O1573  1  0.27779000  0.74431000  0.20884000  1
  O  O1574  1  0.40818000  0.74576000  0.23856000  1
  O  O1575  1  0.44979000  0.79306000  0.29153000  1
  O  O1576  1  0.18626000  0.65696000  0.12500000  1
  O  O1577  1  0.13019000  0.64507000  0.09610000  1
  O  O1578  1  0.11353000  0.68968000  0.07801000  1
  O  O1579  1  0.15505000  0.74209000  0.09146000  1
  O  O1580  1  0.24896000  0.82221000  0.18043000  1
  O  O1581  1  0.27259000  0.83602000  0.23745000  1
  O  O1582  1  0.22717000  0.76325000  0.18728000  1
  O  O1583  1  0.18064000  0.71406000  0.12790000  1
  O  O1584  1  0.18430000  0.80842000  0.13904000  1
  O  O1585  1  0.22511000  0.76605000  0.12090000  1
  O  O1586  1  0.39565000  0.67991000  0.22224000  1
  O  O1587  1  0.24374000  0.71298000  0.14014000  1
  O  O1588  1  0.21210000  0.69610000  0.08600000  1
  O  O1589  1  0.23296000  0.67879000  0.18961000  1
  O  O1590  1  0.46072000  0.20649000  0.49663000  1
  O  O1591  1  0.46453000  0.25569000  0.53348000  1
  O  O1592  1  0.49280000  0.25424000  0.66242000  1
  O  O1593  1  0.49847000  0.20694000  0.65673000  1
  O  O1594  1  0.46804000  0.34304000  0.52930000  1
  O  O1595  1  0.45103000  0.35493000  0.48512000  1
  O  O1596  1  0.38833000  0.31032000  0.42385000  1
  O  O1597  1  0.34937000  0.25791000  0.41296000  1
  O  O1598  1  0.35822000  0.17779000  0.42675000  1
  O  O1599  1  0.40143000  0.16398000  0.43657000  1
  O  O1600  1  0.42403000  0.23675000  0.46392000  1
  O  O1601  1  0.41384000  0.28594000  0.46658000  1
  O  O1602  1  0.33062000  0.19158000  0.37588000  1
  O  O1603  1  0.35485000  0.23395000  0.45906000  1
  O  O1604  1  0.54233000  0.32009000  0.71574000  1
  O  O1605  1  0.42716000  0.28702000  0.53076000  1
  O  O1606  1  0.38990000  0.30390000  0.51600000  1
  O  O1607  1  0.51082000  0.32121000  0.55417000  1
  O  O1608  1  0.79351000  0.53928000  0.50337000  1
  O  O1609  1  0.74431000  0.53547000  0.46652000  1
  O  O1610  1  0.74576000  0.50720000  0.33758000  1
  O  O1611  1  0.79306000  0.50153000  0.34327000  1
  O  O1612  1  0.65696000  0.53196000  0.47070000  1
  O  O1613  1  0.64507000  0.54897000  0.51488000  1
  O  O1614  1  0.68968000  0.61167000  0.57615000  1
  O  O1615  1  0.74209000  0.65063000  0.58704000  1
  O  O1616  1  0.82221000  0.64178000  0.57325000  1
  O  O1617  1  0.83602000  0.59857000  0.56343000  1
  O  O1618  1  0.76325000  0.57597000  0.53608000  1
  O  O1619  1  0.71406000  0.58616000  0.53342000  1
  O  O1620  1  0.80842000  0.66938000  0.62412000  1
  O  O1621  1  0.76605000  0.64515000  0.54094000  1
  O  O1622  1  0.67991000  0.45767000  0.28426000  1
  O  O1623  1  0.71298000  0.57284000  0.46924000  1
  O  O1624  1  0.69610000  0.61010000  0.48400000  1
  O  O1625  1  0.67879000  0.48918000  0.44583000  1
  O  O1626  1  0.20649000  0.70986000  0.74577000  1
  O  O1627  1  0.25569000  0.72221000  0.79116000  1
  O  O1628  1  0.25424000  0.59182000  0.76144000  1
  O  O1629  1  0.20694000  0.55021000  0.70847000  1
  O  O1630  1  0.34304000  0.81374000  0.87500000  1
  O  O1631  1  0.35493000  0.86981000  0.90390000  1
  O  O1632  1  0.31032000  0.88647000  0.92199000  1
  O  O1633  1  0.25791000  0.84495000  0.90854000  1
  O  O1634  1  0.17779000  0.75104000  0.81957000  1
  O  O1635  1  0.16398000  0.72741000  0.76255000  1
  O  O1636  1  0.23675000  0.77283000  0.81272000  1
  O  O1637  1  0.28594000  0.81936000  0.87210000  1
  O  O1638  1  0.19158000  0.81570000  0.86096000  1
  O  O1639  1  0.23395000  0.77489000  0.87910000  1
  O  O1640  1  0.32009000  0.60435000  0.77776000  1
  O  O1641  1  0.28702000  0.75626000  0.85986000  1
  O  O1642  1  0.30390000  0.78790000  0.91400000  1
  O  O1643  1  0.32121000  0.76704000  0.81039000  1
  O  O1644  1  0.03591000  0.29014000  0.49663000  1
  O  O1645  1  0.06895000  0.27779000  0.53348000  1
  O  O1646  1  0.16962000  0.40818000  0.66242000  1
  O  O1647  1  0.15826000  0.44979000  0.65673000  1
  O  O1648  1  0.06126000  0.18626000  0.52930000  1
  O  O1649  1  0.03409000  0.13019000  0.48512000  1
  O  O1650  1  0.03552000  0.11353000  0.42385000  1
  O  O1651  1  0.06359000  0.15505000  0.41296000  1
  O  O1652  1  0.06853000  0.24896000  0.42675000  1
  O  O1653  1  0.03514000  0.27259000  0.43657000  1
  O  O1654  1  0.03989000  0.22717000  0.46392000  1
  O  O1655  1  0.05274000  0.18064000  0.46658000  1
  O  O1656  1  0.04526000  0.18430000  0.37588000  1
  O  O1657  1  0.10421000  0.22511000  0.45906000  1
  O  O1658  1  0.17341000  0.39565000  0.71574000  1
  O  O1659  1  0.10360000  0.24374000  0.53076000  1
  O  O1660  1  0.12610000  0.21210000  0.51600000  1
  O  O1661  1  0.04335000  0.23296000  0.55417000  1
  O  O1662  1  0.96409000  0.46072000  0.25423000  1
  O  O1663  1  0.93105000  0.46453000  0.20884000  1
  O  O1664  1  0.83038000  0.49280000  0.23856000  1
  O  O1665  1  0.84174000  0.49847000  0.29153000  1
  O  O1666  1  0.93874000  0.46804000  0.12500000  1
  O  O1667  1  0.96591000  0.45103000  0.09610000  1
  O  O1668  1  0.96448000  0.38833000  0.07801000  1
  O  O1669  1  0.93641000  0.34937000  0.09146000  1
  O  O1670  1  0.93147000  0.35822000  0.18043000  1
  O  O1671  1  0.96486000  0.40143000  0.23745000  1
  O  O1672  1  0.96011000  0.42403000  0.18728000  1
  O  O1673  1  0.94726000  0.41384000  0.12790000  1
  O  O1674  1  0.95474000  0.33062000  0.13904000  1
  O  O1675  1  0.89579000  0.35485000  0.12090000  1
  O  O1676  1  0.82659000  0.54233000  0.22224000  1
  O  O1677  1  0.89640000  0.42716000  0.14014000  1
  O  O1678  1  0.87390000  0.38990000  0.08600000  1
  O  O1679  1  0.95665000  0.51082000  0.18961000  1
  O  O1680  1  0.50337000  0.79351000  0.53928000  1
  O  O1681  1  0.46652000  0.74431000  0.53547000  1
  O  O1682  1  0.33758000  0.74576000  0.50720000  1
  O  O1683  1  0.34327000  0.79306000  0.50153000  1
  O  O1684  1  0.47070000  0.65696000  0.53196000  1
  O  O1685  1  0.51488000  0.64507000  0.54897000  1
  O  O1686  1  0.57615000  0.68968000  0.61167000  1
  O  O1687  1  0.58704000  0.74209000  0.65063000  1
  O  O1688  1  0.57325000  0.82221000  0.64178000  1
  O  O1689  1  0.56343000  0.83602000  0.59857000  1
  O  O1690  1  0.53608000  0.76325000  0.57597000  1
  O  O1691  1  0.53342000  0.71406000  0.58616000  1
  O  O1692  1  0.62412000  0.80842000  0.66938000  1
  O  O1693  1  0.54094000  0.76605000  0.64515000  1
  O  O1694  1  0.28426000  0.67991000  0.45767000  1
  O  O1695  1  0.46924000  0.71298000  0.57284000  1
  O  O1696  1  0.48400000  0.69610000  0.61010000  1
  O  O1697  1  0.44583000  0.67879000  0.48918000  1
  O  O1698  1  0.74577000  0.20649000  0.70986000  1
  O  O1699  1  0.79116000  0.25569000  0.72221000  1
  O  O1700  1  0.76144000  0.25424000  0.59182000  1
  O  O1701  1  0.70847000  0.20694000  0.55021000  1
  O  O1702  1  0.87500000  0.34304000  0.81374000  1
  O  O1703  1  0.90390000  0.35493000  0.86981000  1
  O  O1704  1  0.92199000  0.31032000  0.88647000  1
  O  O1705  1  0.90854000  0.25791000  0.84495000  1
  O  O1706  1  0.81957000  0.17779000  0.75104000  1
  O  O1707  1  0.76255000  0.16398000  0.72741000  1
  O  O1708  1  0.81272000  0.23675000  0.77283000  1
  O  O1709  1  0.87210000  0.28594000  0.81936000  1
  O  O1710  1  0.86096000  0.19158000  0.81570000  1
  O  O1711  1  0.87910000  0.23395000  0.77489000  1
  O  O1712  1  0.77776000  0.32009000  0.60435000  1
  O  O1713  1  0.85986000  0.28702000  0.75626000  1
  O  O1714  1  0.91400000  0.30390000  0.78790000  1
  O  O1715  1  0.81039000  0.32121000  0.76704000  1
  O  O1716  1  0.49663000  0.03591000  0.29014000  1
  O  O1717  1  0.53348000  0.06895000  0.27779000  1
  O  O1718  1  0.66242000  0.16962000  0.40818000  1
  O  O1719  1  0.65673000  0.15826000  0.44979000  1
  O  O1720  1  0.52930000  0.06126000  0.18626000  1
  O  O1721  1  0.48512000  0.03409000  0.13019000  1
  O  O1722  1  0.42385000  0.03552000  0.11353000  1
  O  O1723  1  0.41296000  0.06359000  0.15505000  1
  O  O1724  1  0.42675000  0.06853000  0.24896000  1
  O  O1725  1  0.43657000  0.03514000  0.27259000  1
  O  O1726  1  0.46392000  0.03989000  0.22717000  1
  O  O1727  1  0.46658000  0.05274000  0.18064000  1
  O  O1728  1  0.37588000  0.04526000  0.18430000  1
  O  O1729  1  0.45906000  0.10421000  0.22511000  1
  O  O1730  1  0.71574000  0.17341000  0.39565000  1
  O  O1731  1  0.53076000  0.10360000  0.24374000  1
  O  O1732  1  0.51600000  0.12610000  0.21210000  1
  O  O1733  1  0.55417000  0.04335000  0.23296000  1
  O  O1734  1  0.25423000  0.96409000  0.46072000  1
  O  O1735  1  0.20884000  0.93105000  0.46453000  1
  O  O1736  1  0.23856000  0.83038000  0.49280000  1
  O  O1737  1  0.29153000  0.84174000  0.49847000  1
  O  O1738  1  0.12500000  0.93874000  0.46804000  1
  O  O1739  1  0.09610000  0.96591000  0.45103000  1
  O  O1740  1  0.07801000  0.96448000  0.38833000  1
  O  O1741  1  0.09146000  0.93641000  0.34937000  1
  O  O1742  1  0.18043000  0.93147000  0.35822000  1
  O  O1743  1  0.23745000  0.96486000  0.40143000  1
  O  O1744  1  0.18728000  0.96011000  0.42403000  1
  O  O1745  1  0.12790000  0.94726000  0.41384000  1
  O  O1746  1  0.13904000  0.95474000  0.33062000  1
  O  O1747  1  0.12090000  0.89579000  0.35485000  1
  O  O1748  1  0.22224000  0.82659000  0.54233000  1
  O  O1749  1  0.14014000  0.89640000  0.42716000  1
  O  O1750  1  0.08600000  0.87390000  0.38990000  1
  O  O1751  1  0.18961000  0.95665000  0.51082000  1
  O  O1752  1  0.53928000  0.50337000  0.79351000  1
  O  O1753  1  0.53547000  0.46652000  0.74431000  1
  O  O1754  1  0.50720000  0.33758000  0.74576000  1
  O  O1755  1  0.50153000  0.34327000  0.79306000  1
  O  O1756  1  0.53196000  0.47070000  0.65696000  1
  O  O1757  1  0.54897000  0.51488000  0.64507000  1
  O  O1758  1  0.61167000  0.57615000  0.68968000  1
  O  O1759  1  0.65063000  0.58704000  0.74209000  1
  O  O1760  1  0.64178000  0.57325000  0.82221000  1
  O  O1761  1  0.59857000  0.56343000  0.83602000  1
  O  O1762  1  0.57597000  0.53608000  0.76325000  1
  O  O1763  1  0.58616000  0.53342000  0.71406000  1
  O  O1764  1  0.66938000  0.62412000  0.80842000  1
  O  O1765  1  0.64515000  0.54094000  0.76605000  1
  O  O1766  1  0.45767000  0.28426000  0.67991000  1
  O  O1767  1  0.57284000  0.46924000  0.71298000  1
  O  O1768  1  0.61010000  0.48400000  0.69610000  1
  O  O1769  1  0.48918000  0.44583000  0.67879000  1
  O  O1770  1  0.70986000  0.74577000  0.20649000  1
  O  O1771  1  0.72221000  0.79116000  0.25569000  1
  O  O1772  1  0.59182000  0.76144000  0.25424000  1
  O  O1773  1  0.55021000  0.70847000  0.20694000  1
  O  O1774  1  0.81374000  0.87500000  0.34304000  1
  O  O1775  1  0.86981000  0.90390000  0.35493000  1
  O  O1776  1  0.88647000  0.92199000  0.31032000  1
  O  O1777  1  0.84495000  0.90854000  0.25791000  1
  O  O1778  1  0.75104000  0.81957000  0.17779000  1
  O  O1779  1  0.72741000  0.76255000  0.16398000  1
  O  O1780  1  0.77283000  0.81272000  0.23675000  1
  O  O1781  1  0.81936000  0.87210000  0.28594000  1
  O  O1782  1  0.81570000  0.86096000  0.19158000  1
  O  O1783  1  0.77489000  0.87910000  0.23395000  1
  O  O1784  1  0.60435000  0.77776000  0.32009000  1
  O  O1785  1  0.75626000  0.85986000  0.28702000  1
  O  O1786  1  0.78790000  0.91400000  0.30390000  1
  O  O1787  1  0.76704000  0.81039000  0.32121000  1
  O  O1788  1  0.29014000  0.49663000  0.03591000  1
  O  O1789  1  0.27779000  0.53348000  0.06895000  1
  O  O1790  1  0.40818000  0.66242000  0.16962000  1
  O  O1791  1  0.44979000  0.65673000  0.15826000  1
  O  O1792  1  0.18626000  0.52930000  0.06126000  1
  O  O1793  1  0.13019000  0.48512000  0.03409000  1
  O  O1794  1  0.11353000  0.42385000  0.03552000  1
  O  O1795  1  0.15505000  0.41296000  0.06359000  1
  O  O1796  1  0.24896000  0.42675000  0.06853000  1
  O  O1797  1  0.27259000  0.43657000  0.03514000  1
  O  O1798  1  0.22717000  0.46392000  0.03989000  1
  O  O1799  1  0.18064000  0.46658000  0.05274000  1
  O  O1800  1  0.18430000  0.37588000  0.04526000  1
  O  O1801  1  0.22511000  0.45906000  0.10421000  1
  O  O1802  1  0.39565000  0.71574000  0.17341000  1
  O  O1803  1  0.24374000  0.53076000  0.10360000  1
  O  O1804  1  0.21210000  0.51600000  0.12610000  1
  O  O1805  1  0.23296000  0.55417000  0.04335000  1
  O  O1806  1  0.46072000  0.25423000  0.96409000  1
  O  O1807  1  0.46453000  0.20884000  0.93105000  1
  O  O1808  1  0.49280000  0.23856000  0.83038000  1
  O  O1809  1  0.49847000  0.29153000  0.84174000  1
  O  O1810  1  0.46804000  0.12500000  0.93874000  1
  O  O1811  1  0.45103000  0.09610000  0.96591000  1
  O  O1812  1  0.38833000  0.07801000  0.96448000  1
  O  O1813  1  0.34937000  0.09146000  0.93641000  1
  O  O1814  1  0.35822000  0.18043000  0.93147000  1
  O  O1815  1  0.40143000  0.23745000  0.96486000  1
  O  O1816  1  0.42403000  0.18728000  0.96011000  1
  O  O1817  1  0.41384000  0.12790000  0.94726000  1
  O  O1818  1  0.33062000  0.13904000  0.95474000  1
  O  O1819  1  0.35485000  0.12090000  0.89579000  1
  O  O1820  1  0.54233000  0.22224000  0.82659000  1
  O  O1821  1  0.42716000  0.14014000  0.89640000  1
  O  O1822  1  0.38990000  0.08600000  0.87390000  1
  O  O1823  1  0.51082000  0.18961000  0.95665000  1
  O  O1824  1  0.20649000  0.74577000  0.70986000  1
  O  O1825  1  0.25569000  0.79116000  0.72221000  1
  O  O1826  1  0.25424000  0.76144000  0.59182000  1
  O  O1827  1  0.20694000  0.70847000  0.55021000  1
  O  O1828  1  0.34304000  0.87500000  0.81374000  1
  O  O1829  1  0.35493000  0.90390000  0.86981000  1
  O  O1830  1  0.31032000  0.92199000  0.88647000  1
  O  O1831  1  0.25791000  0.90854000  0.84495000  1
  O  O1832  1  0.17779000  0.81957000  0.75104000  1
  O  O1833  1  0.16398000  0.76255000  0.72741000  1
  O  O1834  1  0.23675000  0.81272000  0.77283000  1
  O  O1835  1  0.28594000  0.87210000  0.81936000  1
  O  O1836  1  0.19158000  0.86096000  0.81570000  1
  O  O1837  1  0.23395000  0.87910000  0.77489000  1
  O  O1838  1  0.32009000  0.77776000  0.60435000  1
  O  O1839  1  0.28702000  0.85986000  0.75626000  1
  O  O1840  1  0.30390000  0.91400000  0.78790000  1
  O  O1841  1  0.32121000  0.81039000  0.76704000  1
  O  O1842  1  0.79351000  0.50337000  0.53928000  1
  O  O1843  1  0.74431000  0.46652000  0.53547000  1
  O  O1844  1  0.74576000  0.33758000  0.50720000  1
  O  O1845  1  0.79306000  0.34327000  0.50153000  1
  O  O1846  1  0.65696000  0.47070000  0.53196000  1
  O  O1847  1  0.64507000  0.51488000  0.54897000  1
  O  O1848  1  0.68968000  0.57615000  0.61167000  1
  O  O1849  1  0.74209000  0.58704000  0.65063000  1
  O  O1850  1  0.82221000  0.57325000  0.64178000  1
  O  O1851  1  0.83602000  0.56343000  0.59857000  1
  O  O1852  1  0.76325000  0.53608000  0.57597000  1
  O  O1853  1  0.71406000  0.53342000  0.58616000  1
  O  O1854  1  0.80842000  0.62412000  0.66938000  1
  O  O1855  1  0.76605000  0.54094000  0.64515000  1
  O  O1856  1  0.67991000  0.28426000  0.45767000  1
  O  O1857  1  0.71298000  0.46924000  0.57284000  1
  O  O1858  1  0.69610000  0.48400000  0.61010000  1
  O  O1859  1  0.67879000  0.44583000  0.48918000  1
  O  O1860  1  0.96409000  0.25423000  0.46072000  1
  O  O1861  1  0.93105000  0.20884000  0.46453000  1
  O  O1862  1  0.83038000  0.23856000  0.49280000  1
  O  O1863  1  0.84174000  0.29153000  0.49847000  1
  O  O1864  1  0.93874000  0.12500000  0.46804000  1
  O  O1865  1  0.96591000  0.09610000  0.45103000  1
  O  O1866  1  0.96448000  0.07801000  0.38833000  1
  O  O1867  1  0.93641000  0.09146000  0.34937000  1
  O  O1868  1  0.93147000  0.18043000  0.35822000  1
  O  O1869  1  0.96486000  0.23745000  0.40143000  1
  O  O1870  1  0.96011000  0.18728000  0.42403000  1
  O  O1871  1  0.94726000  0.12790000  0.41384000  1
  O  O1872  1  0.95474000  0.13904000  0.33062000  1
  O  O1873  1  0.89579000  0.12090000  0.35485000  1
  O  O1874  1  0.82659000  0.22224000  0.54233000  1
  O  O1875  1  0.89640000  0.14014000  0.42716000  1
  O  O1876  1  0.87390000  0.08600000  0.38990000  1
  O  O1877  1  0.95665000  0.18961000  0.51082000  1
  O  O1878  1  0.03591000  0.49663000  0.29014000  1
  O  O1879  1  0.06895000  0.53348000  0.27779000  1
  O  O1880  1  0.16962000  0.66242000  0.40818000  1
  O  O1881  1  0.15826000  0.65673000  0.44979000  1
  O  O1882  1  0.06126000  0.52930000  0.18626000  1
  O  O1883  1  0.03409000  0.48512000  0.13019000  1
  O  O1884  1  0.03552000  0.42385000  0.11353000  1
  O  O1885  1  0.06359000  0.41296000  0.15505000  1
  O  O1886  1  0.06853000  0.42675000  0.24896000  1
  O  O1887  1  0.03514000  0.43657000  0.27259000  1
  O  O1888  1  0.03989000  0.46392000  0.22717000  1
  O  O1889  1  0.05274000  0.46658000  0.18064000  1
  O  O1890  1  0.04526000  0.37588000  0.18430000  1
  O  O1891  1  0.10421000  0.45906000  0.22511000  1
  O  O1892  1  0.17341000  0.71574000  0.39565000  1
  O  O1893  1  0.10360000  0.53076000  0.24374000  1
  O  O1894  1  0.12610000  0.51600000  0.21210000  1
  O  O1895  1  0.04335000  0.55417000  0.23296000  1
  O  O1896  1  0.49663000  0.29014000  0.03591000  1
  O  O1897  1  0.53348000  0.27779000  0.06895000  1
  O  O1898  1  0.66242000  0.40818000  0.16962000  1
  O  O1899  1  0.65673000  0.44979000  0.15826000  1
  O  O1900  1  0.52930000  0.18626000  0.06126000  1
  O  O1901  1  0.48512000  0.13019000  0.03409000  1
  O  O1902  1  0.42385000  0.11353000  0.03552000  1
  O  O1903  1  0.41296000  0.15505000  0.06359000  1
  O  O1904  1  0.42675000  0.24896000  0.06853000  1
  O  O1905  1  0.43657000  0.27259000  0.03514000  1
  O  O1906  1  0.46392000  0.22717000  0.03989000  1
  O  O1907  1  0.46658000  0.18064000  0.05274000  1
  O  O1908  1  0.37588000  0.18430000  0.04526000  1
  O  O1909  1  0.45906000  0.22511000  0.10421000  1
  O  O1910  1  0.71574000  0.39565000  0.17341000  1
  O  O1911  1  0.53076000  0.24374000  0.10360000  1
  O  O1912  1  0.51600000  0.21210000  0.12610000  1
  O  O1913  1  0.55417000  0.23296000  0.04335000  1
  O  O1914  1  0.25423000  0.46072000  0.96409000  1
  O  O1915  1  0.20884000  0.46453000  0.93105000  1
  O  O1916  1  0.23856000  0.49280000  0.83038000  1
  O  O1917  1  0.29153000  0.49847000  0.84174000  1
  O  O1918  1  0.12500000  0.46804000  0.93874000  1
  O  O1919  1  0.09610000  0.45103000  0.96591000  1
  O  O1920  1  0.07801000  0.38833000  0.96448000  1
  O  O1921  1  0.09146000  0.34937000  0.93641000  1
  O  O1922  1  0.18043000  0.35822000  0.93147000  1
  O  O1923  1  0.23745000  0.40143000  0.96486000  1
  O  O1924  1  0.18728000  0.42403000  0.96011000  1
  O  O1925  1  0.12790000  0.41384000  0.94726000  1
  O  O1926  1  0.13904000  0.33062000  0.95474000  1
  O  O1927  1  0.12090000  0.35485000  0.89579000  1
  O  O1928  1  0.22224000  0.54233000  0.82659000  1
  O  O1929  1  0.14014000  0.42716000  0.89640000  1
  O  O1930  1  0.08600000  0.38990000  0.87390000  1
  O  O1931  1  0.18961000  0.51082000  0.95665000  1
  O  O1932  1  0.50337000  0.53928000  0.79351000  1
  O  O1933  1  0.46652000  0.53547000  0.74431000  1
  O  O1934  1  0.33758000  0.50720000  0.74576000  1
  O  O1935  1  0.34327000  0.50153000  0.79306000  1
  O  O1936  1  0.47070000  0.53196000  0.65696000  1
  O  O1937  1  0.51488000  0.54897000  0.64507000  1
  O  O1938  1  0.57615000  0.61167000  0.68968000  1
  O  O1939  1  0.58704000  0.65063000  0.74209000  1
  O  O1940  1  0.57325000  0.64178000  0.82221000  1
  O  O1941  1  0.56343000  0.59857000  0.83602000  1
  O  O1942  1  0.53608000  0.57597000  0.76325000  1
  O  O1943  1  0.53342000  0.58616000  0.71406000  1
  O  O1944  1  0.62412000  0.66938000  0.80842000  1
  O  O1945  1  0.54094000  0.64515000  0.76605000  1
  O  O1946  1  0.28426000  0.45767000  0.67991000  1
  O  O1947  1  0.46924000  0.57284000  0.71298000  1
  O  O1948  1  0.48400000  0.61010000  0.69610000  1
  O  O1949  1  0.44583000  0.48918000  0.67879000  1
  O  O1950  1  0.74577000  0.70986000  0.20649000  1
  O  O1951  1  0.79116000  0.72221000  0.25569000  1
  O  O1952  1  0.76144000  0.59182000  0.25424000  1
  O  O1953  1  0.70847000  0.55021000  0.20694000  1
  O  O1954  1  0.87500000  0.81374000  0.34304000  1
  O  O1955  1  0.90390000  0.86981000  0.35493000  1
  O  O1956  1  0.92199000  0.88647000  0.31032000  1
  O  O1957  1  0.90854000  0.84495000  0.25791000  1
  O  O1958  1  0.81957000  0.75104000  0.17779000  1
  O  O1959  1  0.76255000  0.72741000  0.16398000  1
  O  O1960  1  0.81272000  0.77283000  0.23675000  1
  O  O1961  1  0.87210000  0.81936000  0.28594000  1
  O  O1962  1  0.86096000  0.81570000  0.19158000  1
  O  O1963  1  0.87910000  0.77489000  0.23395000  1
  O  O1964  1  0.77776000  0.60435000  0.32009000  1
  O  O1965  1  0.85986000  0.75626000  0.28702000  1
  O  O1966  1  0.91400000  0.78790000  0.30390000  1
  O  O1967  1  0.81039000  0.76704000  0.32121000  1
  O  O1968  1  0.46072000  0.96409000  0.25423000  1
  O  O1969  1  0.46453000  0.93105000  0.20884000  1
  O  O1970  1  0.49280000  0.83038000  0.23856000  1
  O  O1971  1  0.49847000  0.84174000  0.29153000  1
  O  O1972  1  0.46804000  0.93874000  0.12500000  1
  O  O1973  1  0.45103000  0.96591000  0.09610000  1
  O  O1974  1  0.38833000  0.96448000  0.07801000  1
  O  O1975  1  0.34937000  0.93641000  0.09146000  1
  O  O1976  1  0.35822000  0.93147000  0.18043000  1
  O  O1977  1  0.40143000  0.96486000  0.23745000  1
  O  O1978  1  0.42403000  0.96011000  0.18728000  1
  O  O1979  1  0.41384000  0.94726000  0.12790000  1
  O  O1980  1  0.33062000  0.95474000  0.13904000  1
  O  O1981  1  0.35485000  0.89579000  0.12090000  1
  O  O1982  1  0.54233000  0.82659000  0.22224000  1
  O  O1983  1  0.42716000  0.89640000  0.14014000  1
  O  O1984  1  0.38990000  0.87390000  0.08600000  1
  O  O1985  1  0.51082000  0.95665000  0.18961000  1
  O  O1986  1  0.29014000  0.03591000  0.49663000  1
  O  O1987  1  0.27779000  0.06895000  0.53348000  1
  O  O1988  1  0.40818000  0.16962000  0.66242000  1
  O  O1989  1  0.44979000  0.15826000  0.65673000  1
  O  O1990  1  0.18626000  0.06126000  0.52930000  1
  O  O1991  1  0.13019000  0.03409000  0.48512000  1
  O  O1992  1  0.11353000  0.03552000  0.42385000  1
  O  O1993  1  0.15505000  0.06359000  0.41296000  1
  O  O1994  1  0.24896000  0.06853000  0.42675000  1
  O  O1995  1  0.27259000  0.03514000  0.43657000  1
  O  O1996  1  0.22717000  0.03989000  0.46392000  1
  O  O1997  1  0.18064000  0.05274000  0.46658000  1
  O  O1998  1  0.18430000  0.04526000  0.37588000  1
  O  O1999  1  0.22511000  0.10421000  0.45906000  1
  O  O2000  1  0.39565000  0.17341000  0.71574000  1
  O  O2001  1  0.24374000  0.10360000  0.53076000  1
  O  O2002  1  0.21210000  0.12610000  0.51600000  1
  O  O2003  1  0.23296000  0.04335000  0.55417000  1
  O  O2004  1  0.70986000  0.20649000  0.74577000  1
  O  O2005  1  0.72221000  0.25569000  0.79116000  1
  O  O2006  1  0.59182000  0.25424000  0.76144000  1
  O  O2007  1  0.55021000  0.20694000  0.70847000  1
  O  O2008  1  0.81374000  0.34304000  0.87500000  1
  O  O2009  1  0.86981000  0.35493000  0.90390000  1
  O  O2010  1  0.88647000  0.31032000  0.92199000  1
  O  O2011  1  0.84495000  0.25791000  0.90854000  1
  O  O2012  1  0.75104000  0.17779000  0.81957000  1
  O  O2013  1  0.72741000  0.16398000  0.76255000  1
  O  O2014  1  0.77283000  0.23675000  0.81272000  1
  O  O2015  1  0.81936000  0.28594000  0.87210000  1
  O  O2016  1  0.81570000  0.19158000  0.86096000  1
  O  O2017  1  0.77489000  0.23395000  0.87910000  1
  O  O2018  1  0.60435000  0.32009000  0.77776000  1
  O  O2019  1  0.75626000  0.28702000  0.85986000  1
  O  O2020  1  0.78790000  0.30390000  0.91400000  1
  O  O2021  1  0.76704000  0.32121000  0.81039000  1
  O  O2022  1  0.53928000  0.79351000  0.50337000  1
  O  O2023  1  0.53547000  0.74431000  0.46652000  1
  O  O2024  1  0.50720000  0.74576000  0.33758000  1
  O  O2025  1  0.50153000  0.79306000  0.34327000  1
  O  O2026  1  0.53196000  0.65696000  0.47070000  1
  O  O2027  1  0.54897000  0.64507000  0.51488000  1
  O  O2028  1  0.61167000  0.68968000  0.57615000  1
  O  O2029  1  0.65063000  0.74209000  0.58704000  1
  O  O2030  1  0.64178000  0.82221000  0.57325000  1
  O  O2031  1  0.59857000  0.83602000  0.56343000  1
  O  O2032  1  0.57597000  0.76325000  0.53608000  1
  O  O2033  1  0.58616000  0.71406000  0.53342000  1
  O  O2034  1  0.66938000  0.80842000  0.62412000  1
  O  O2035  1  0.64515000  0.76605000  0.54094000  1
  O  O2036  1  0.45767000  0.67991000  0.28426000  1
  O  O2037  1  0.57284000  0.71298000  0.46924000  1
  O  O2038  1  0.61010000  0.69610000  0.48400000  1
  O  O2039  1  0.48918000  0.67879000  0.44583000  1
  O  O2040  1  0.20649000  0.46072000  0.49663000  1
  O  O2041  1  0.25569000  0.46453000  0.53348000  1
  O  O2042  1  0.25424000  0.49280000  0.66242000  1
  O  O2043  1  0.20694000  0.49847000  0.65673000  1
  O  O2044  1  0.34304000  0.46804000  0.52930000  1
  O  O2045  1  0.35493000  0.45103000  0.48512000  1
  O  O2046  1  0.31032000  0.38833000  0.42385000  1
  O  O2047  1  0.25791000  0.34937000  0.41296000  1
  O  O2048  1  0.17779000  0.35822000  0.42675000  1
  O  O2049  1  0.16398000  0.40143000  0.43657000  1
  O  O2050  1  0.23675000  0.42403000  0.46392000  1
  O  O2051  1  0.28594000  0.41384000  0.46658000  1
  O  O2052  1  0.19158000  0.33062000  0.37588000  1
  O  O2053  1  0.23395000  0.35485000  0.45906000  1
  O  O2054  1  0.32009000  0.54233000  0.71574000  1
  O  O2055  1  0.28702000  0.42716000  0.53076000  1
  O  O2056  1  0.30390000  0.38990000  0.51600000  1
  O  O2057  1  0.32121000  0.51082000  0.55417000  1
  O  O2058  1  0.79351000  0.29014000  0.25423000  1
  O  O2059  1  0.74431000  0.27779000  0.20884000  1
  O  O2060  1  0.74576000  0.40818000  0.23856000  1
  O  O2061  1  0.79306000  0.44979000  0.29153000  1
  O  O2062  1  0.65696000  0.18626000  0.12500000  1
  O  O2063  1  0.64507000  0.13019000  0.09610000  1
  O  O2064  1  0.68968000  0.11353000  0.07801000  1
  O  O2065  1  0.74209000  0.15505000  0.09146000  1
  O  O2066  1  0.82221000  0.24896000  0.18043000  1
  O  O2067  1  0.83602000  0.27259000  0.23745000  1
  O  O2068  1  0.76325000  0.22717000  0.18728000  1
  O  O2069  1  0.71406000  0.18064000  0.12790000  1
  O  O2070  1  0.80842000  0.18430000  0.13904000  1
  O  O2071  1  0.76605000  0.22511000  0.12090000  1
  O  O2072  1  0.67991000  0.39565000  0.22224000  1
  O  O2073  1  0.71298000  0.24374000  0.14014000  1
  O  O2074  1  0.69610000  0.21210000  0.08600000  1
  O  O2075  1  0.67879000  0.23296000  0.18961000  1
  O  O2076  1  0.96409000  0.70986000  0.50337000  1
  O  O2077  1  0.93105000  0.72221000  0.46652000  1
  O  O2078  1  0.83038000  0.59182000  0.33758000  1
  O  O2079  1  0.84174000  0.55021000  0.34327000  1
  O  O2080  1  0.93874000  0.81374000  0.47070000  1
  O  O2081  1  0.96591000  0.86981000  0.51488000  1
  O  O2082  1  0.96448000  0.88647000  0.57615000  1
  O  O2083  1  0.93641000  0.84495000  0.58704000  1
  O  O2084  1  0.93147000  0.75104000  0.57325000  1
  O  O2085  1  0.96486000  0.72741000  0.56343000  1
  O  O2086  1  0.96011000  0.77283000  0.53608000  1
  O  O2087  1  0.94726000  0.81936000  0.53342000  1
  O  O2088  1  0.95474000  0.81570000  0.62412000  1
  O  O2089  1  0.89579000  0.77489000  0.54094000  1
  O  O2090  1  0.82659000  0.60435000  0.28426000  1
  O  O2091  1  0.89640000  0.75626000  0.46924000  1
  O  O2092  1  0.87390000  0.78790000  0.48400000  1
  O  O2093  1  0.95665000  0.76704000  0.44583000  1
  O  O2094  1  0.03591000  0.53928000  0.74577000  1
  O  O2095  1  0.06895000  0.53547000  0.79116000  1
  O  O2096  1  0.16962000  0.50720000  0.76144000  1
  O  O2097  1  0.15826000  0.50153000  0.70847000  1
  O  O2098  1  0.06126000  0.53196000  0.87500000  1
  O  O2099  1  0.03409000  0.54897000  0.90390000  1
  O  O2100  1  0.03552000  0.61167000  0.92199000  1
  O  O2101  1  0.06359000  0.65063000  0.90854000  1
  O  O2102  1  0.06853000  0.64178000  0.81957000  1
  O  O2103  1  0.03514000  0.59857000  0.76255000  1
  O  O2104  1  0.03989000  0.57597000  0.81272000  1
  O  O2105  1  0.05274000  0.58616000  0.87210000  1
  O  O2106  1  0.04526000  0.66938000  0.86096000  1
  O  O2107  1  0.10421000  0.64515000  0.87910000  1
  O  O2108  1  0.17341000  0.45767000  0.77776000  1
  O  O2109  1  0.10360000  0.57284000  0.85986000  1
  O  O2110  1  0.12610000  0.61010000  0.91400000  1
  O  O2111  1  0.04335000  0.48918000  0.81039000  1
  O  O2112  1  0.49663000  0.20649000  0.46072000  1
  O  O2113  1  0.53348000  0.25569000  0.46453000  1
  O  O2114  1  0.66242000  0.25424000  0.49280000  1
  O  O2115  1  0.65673000  0.20694000  0.49847000  1
  O  O2116  1  0.52930000  0.34304000  0.46804000  1
  O  O2117  1  0.48512000  0.35493000  0.45103000  1
  O  O2118  1  0.42385000  0.31032000  0.38833000  1
  O  O2119  1  0.41296000  0.25791000  0.34937000  1
  O  O2120  1  0.42675000  0.17779000  0.35822000  1
  O  O2121  1  0.43657000  0.16398000  0.40143000  1
  O  O2122  1  0.46392000  0.23675000  0.42403000  1
  O  O2123  1  0.46658000  0.28594000  0.41384000  1
  O  O2124  1  0.37588000  0.19158000  0.33062000  1
  O  O2125  1  0.45906000  0.23395000  0.35485000  1
  O  O2126  1  0.71574000  0.32009000  0.54233000  1
  O  O2127  1  0.53076000  0.28702000  0.42716000  1
  O  O2128  1  0.51600000  0.30390000  0.38990000  1
  O  O2129  1  0.55417000  0.32121000  0.51082000  1
  O  O2130  1  0.25423000  0.79351000  0.29014000  1
  O  O2131  1  0.20884000  0.74431000  0.27779000  1
  O  O2132  1  0.23856000  0.74576000  0.40818000  1
  O  O2133  1  0.29153000  0.79306000  0.44979000  1
  O  O2134  1  0.12500000  0.65696000  0.18626000  1
  O  O2135  1  0.09610000  0.64507000  0.13019000  1
  O  O2136  1  0.07801000  0.68968000  0.11353000  1
  O  O2137  1  0.09146000  0.74209000  0.15505000  1
  O  O2138  1  0.18043000  0.82221000  0.24896000  1
  O  O2139  1  0.23745000  0.83602000  0.27259000  1
  O  O2140  1  0.18728000  0.76325000  0.22717000  1
  O  O2141  1  0.12790000  0.71406000  0.18064000  1
  O  O2142  1  0.13904000  0.80842000  0.18430000  1
  O  O2143  1  0.12090000  0.76605000  0.22511000  1
  O  O2144  1  0.22224000  0.67991000  0.39565000  1
  O  O2145  1  0.14014000  0.71298000  0.24374000  1
  O  O2146  1  0.08600000  0.69610000  0.21210000  1
  O  O2147  1  0.18961000  0.67879000  0.23296000  1
  O  O2148  1  0.50337000  0.96409000  0.70986000  1
  O  O2149  1  0.46652000  0.93105000  0.72221000  1
  O  O2150  1  0.33758000  0.83038000  0.59182000  1
  O  O2151  1  0.34327000  0.84174000  0.55021000  1
  O  O2152  1  0.47070000  0.93874000  0.81374000  1
  O  O2153  1  0.51488000  0.96591000  0.86981000  1
  O  O2154  1  0.57615000  0.96448000  0.88647000  1
  O  O2155  1  0.58704000  0.93641000  0.84495000  1
  O  O2156  1  0.57325000  0.93147000  0.75104000  1
  O  O2157  1  0.56343000  0.96486000  0.72741000  1
  O  O2158  1  0.53608000  0.96011000  0.77283000  1
  O  O2159  1  0.53342000  0.94726000  0.81936000  1
  O  O2160  1  0.62412000  0.95474000  0.81570000  1
  O  O2161  1  0.54094000  0.89579000  0.77489000  1
  O  O2162  1  0.28426000  0.82659000  0.60435000  1
  O  O2163  1  0.46924000  0.89640000  0.75626000  1
  O  O2164  1  0.48400000  0.87390000  0.78790000  1
  O  O2165  1  0.44583000  0.95665000  0.76704000  1
  O  O2166  1  0.74577000  0.03591000  0.53928000  1
  O  O2167  1  0.79116000  0.06895000  0.53547000  1
  O  O2168  1  0.76144000  0.16962000  0.50720000  1
  O  O2169  1  0.70847000  0.15826000  0.50153000  1
  O  O2170  1  0.87500000  0.06126000  0.53196000  1
  O  O2171  1  0.90390000  0.03409000  0.54897000  1
  O  O2172  1  0.92199000  0.03552000  0.61167000  1
  O  O2173  1  0.90854000  0.06359000  0.65063000  1
  O  O2174  1  0.81957000  0.06853000  0.64178000  1
  O  O2175  1  0.76255000  0.03514000  0.59857000  1
  O  O2176  1  0.81272000  0.03989000  0.57597000  1
  O  O2177  1  0.87210000  0.05274000  0.58616000  1
  O  O2178  1  0.86096000  0.04526000  0.66938000  1
  O  O2179  1  0.87910000  0.10421000  0.64515000  1
  O  O2180  1  0.77776000  0.17341000  0.45767000  1
  O  O2181  1  0.85986000  0.10360000  0.57284000  1
  O  O2182  1  0.91400000  0.12610000  0.61010000  1
  O  O2183  1  0.81039000  0.04335000  0.48918000  1
  O  O2184  1  0.46072000  0.49663000  0.20649000  1
  O  O2185  1  0.46453000  0.53348000  0.25569000  1
  O  O2186  1  0.49280000  0.66242000  0.25424000  1
  O  O2187  1  0.49847000  0.65673000  0.20694000  1
  O  O2188  1  0.46804000  0.52930000  0.34304000  1
  O  O2189  1  0.45103000  0.48512000  0.35493000  1
  O  O2190  1  0.38833000  0.42385000  0.31032000  1
  O  O2191  1  0.34937000  0.41296000  0.25791000  1
  O  O2192  1  0.35822000  0.42675000  0.17779000  1
  O  O2193  1  0.40143000  0.43657000  0.16398000  1
  O  O2194  1  0.42403000  0.46392000  0.23675000  1
  O  O2195  1  0.41384000  0.46658000  0.28594000  1
  O  O2196  1  0.33062000  0.37588000  0.19158000  1
  O  O2197  1  0.35485000  0.45906000  0.23395000  1
  O  O2198  1  0.54233000  0.71574000  0.32009000  1
  O  O2199  1  0.42716000  0.53076000  0.28702000  1
  O  O2200  1  0.38990000  0.51600000  0.30390000  1
  O  O2201  1  0.51082000  0.55417000  0.32121000  1
  O  O2202  1  0.29014000  0.25423000  0.79351000  1
  O  O2203  1  0.27779000  0.20884000  0.74431000  1
  O  O2204  1  0.40818000  0.23856000  0.74576000  1
  O  O2205  1  0.44979000  0.29153000  0.79306000  1
  O  O2206  1  0.18626000  0.12500000  0.65696000  1
  O  O2207  1  0.13019000  0.09610000  0.64507000  1
  O  O2208  1  0.11353000  0.07801000  0.68968000  1
  O  O2209  1  0.15505000  0.09146000  0.74209000  1
  O  O2210  1  0.24896000  0.18043000  0.82221000  1
  O  O2211  1  0.27259000  0.23745000  0.83602000  1
  O  O2212  1  0.22717000  0.18728000  0.76325000  1
  O  O2213  1  0.18064000  0.12790000  0.71406000  1
  O  O2214  1  0.18430000  0.13904000  0.80842000  1
  O  O2215  1  0.22511000  0.12090000  0.76605000  1
  O  O2216  1  0.39565000  0.22224000  0.67991000  1
  O  O2217  1  0.24374000  0.14014000  0.71298000  1
  O  O2218  1  0.21210000  0.08600000  0.69610000  1
  O  O2219  1  0.23296000  0.18961000  0.67879000  1
  O  O2220  1  0.70986000  0.50337000  0.96409000  1
  O  O2221  1  0.72221000  0.46652000  0.93105000  1
  O  O2222  1  0.59182000  0.33758000  0.83038000  1
  O  O2223  1  0.55021000  0.34327000  0.84174000  1
  O  O2224  1  0.81374000  0.47070000  0.93874000  1
  O  O2225  1  0.86981000  0.51488000  0.96591000  1
  O  O2226  1  0.88647000  0.57615000  0.96448000  1
  O  O2227  1  0.84495000  0.58704000  0.93641000  1
  O  O2228  1  0.75104000  0.57325000  0.93147000  1
  O  O2229  1  0.72741000  0.56343000  0.96486000  1
  O  O2230  1  0.77283000  0.53608000  0.96011000  1
  O  O2231  1  0.81936000  0.53342000  0.94726000  1
  O  O2232  1  0.81570000  0.62412000  0.95474000  1
  O  O2233  1  0.77489000  0.54094000  0.89579000  1
  O  O2234  1  0.60435000  0.28426000  0.82659000  1
  O  O2235  1  0.75626000  0.46924000  0.89640000  1
  O  O2236  1  0.78790000  0.48400000  0.87390000  1
  O  O2237  1  0.76704000  0.44583000  0.95665000  1
  O  O2238  1  0.53928000  0.74577000  0.03591000  1
  O  O2239  1  0.53547000  0.79116000  0.06895000  1
  O  O2240  1  0.50720000  0.76144000  0.16962000  1
  O  O2241  1  0.50153000  0.70847000  0.15826000  1
  O  O2242  1  0.53196000  0.87500000  0.06126000  1
  O  O2243  1  0.54897000  0.90390000  0.03409000  1
  O  O2244  1  0.61167000  0.92199000  0.03552000  1
  O  O2245  1  0.65063000  0.90854000  0.06359000  1
  O  O2246  1  0.64178000  0.81957000  0.06853000  1
  O  O2247  1  0.59857000  0.76255000  0.03514000  1
  O  O2248  1  0.57597000  0.81272000  0.03989000  1
  O  O2249  1  0.58616000  0.87210000  0.05274000  1
  O  O2250  1  0.66938000  0.86096000  0.04526000  1
  O  O2251  1  0.64515000  0.87910000  0.10421000  1
  O  O2252  1  0.45767000  0.77776000  0.17341000  1
  O  O2253  1  0.57284000  0.85986000  0.10360000  1
  O  O2254  1  0.61010000  0.91400000  0.12610000  1
  O  O2255  1  0.48918000  0.81039000  0.04335000  1
  O  O2256  1  0.74490000  0.15071000  0.15071000  1
  O  O2257  1  0.80254000  0.20066000  0.20066000  1
  O  O2258  1  0.69486000  0.17019000  0.17019000  1
  O  O2259  1  0.73614000  0.22644000  0.22644000  1
  O  O2260  1  0.63560000  0.19980000  0.19980000  1
  O  O2261  1  0.25510000  0.40581000  0.40581000  1
  O  O2262  1  0.19746000  0.39812000  0.39812000  1
  O  O2263  1  0.30514000  0.47533000  0.47533000  1
  O  O2264  1  0.26386000  0.49030000  0.49030000  1
  O  O2265  1  0.36440000  0.56420000  0.56420000  1
  O  O2266  1  0.00000000  0.84929000  0.59419000  1
  O  O2267  1  0.00000000  0.79934000  0.60188000  1
  O  O2268  1  0.00000000  0.82981000  0.52467000  1
  O  O2269  1  0.00000000  0.77356000  0.50970000  1
  O  O2270  1  0.00000000  0.80020000  0.43580000  1
  O  O2271  1  0.00000000  0.59419000  0.84929000  1
  O  O2272  1  0.00000000  0.60188000  0.79934000  1
  O  O2273  1  0.00000000  0.52467000  0.82981000  1
  O  O2274  1  0.00000000  0.50970000  0.77356000  1
  O  O2275  1  0.00000000  0.43580000  0.80020000  1
  O  O2276  1  0.59419000  0.84929000  0.00000000  1
  O  O2277  1  0.60188000  0.79934000  0.00000000  1
  O  O2278  1  0.52467000  0.82981000  0.00000000  1
  O  O2279  1  0.50970000  0.77356000  0.00000000  1
  O  O2280  1  0.43580000  0.80020000  1.00000000  1
  O  O2281  1  0.84929000  0.59419000  0.00000000  1
  O  O2282  1  0.79934000  0.60188000  1.00000000  1
  O  O2283  1  0.82981000  0.52467000  0.00000000  1
  O  O2284  1  0.77356000  0.50970000  0.00000000  1
  O  O2285  1  0.80020000  0.43580000  0.00000000  1
  O  O2286  1  0.40581000  0.40581000  0.25510000  1
  O  O2287  1  0.39812000  0.39812000  0.19746000  1
  O  O2288  1  0.47533000  0.47533000  0.30514000  1
  O  O2289  1  0.49030000  0.49030000  0.26386000  1
  O  O2290  1  0.56420000  0.56420000  0.36440000  1
  O  O2291  1  0.15071000  0.15071000  0.74490000  1
  O  O2292  1  0.20066000  0.20066000  0.80254000  1
  O  O2293  1  0.17019000  0.17019000  0.69486000  1
  O  O2294  1  0.22644000  0.22644000  0.73614000  1
  O  O2295  1  0.19980000  0.19980000  0.63560000  1
  O  O2296  1  0.59419000  1.00000000  0.84929000  1
  O  O2297  1  0.60188000  1.00000000  0.79934000  1
  O  O2298  1  0.52467000  0.00000000  0.82981000  1
  O  O2299  1  0.50970000  0.00000000  0.77356000  1
  O  O2300  1  0.43580000  0.00000000  0.80020000  1
  O  O2301  1  0.84929000  0.00000000  0.59419000  1
  O  O2302  1  0.79934000  0.00000000  0.60188000  1
  O  O2303  1  0.82981000  1.00000000  0.52467000  1
  O  O2304  1  0.77356000  0.00000000  0.50970000  1
  O  O2305  1  0.80020000  0.00000000  0.43580000  1
  O  O2306  1  0.15071000  0.74490000  0.15071000  1
  O  O2307  1  0.20066000  0.80254000  0.20066000  1
  O  O2308  1  0.17019000  0.69486000  0.17019000  1
  O  O2309  1  0.22644000  0.73614000  0.22644000  1
  O  O2310  1  0.19980000  0.63560000  0.19980000  1
  O  O2311  1  0.40581000  0.25510000  0.40581000  1
  O  O2312  1  0.39812000  0.19746000  0.39812000  1
  O  O2313  1  0.47533000  0.30514000  0.47533000  1
  O  O2314  1  0.49030000  0.26386000  0.49030000  1
  O  O2315  1  0.56420000  0.36440000  0.56420000  1
  O  O2316  1  0.74490000  0.59419000  0.59419000  1
  O  O2317  1  0.80254000  0.60188000  0.60188000  1
  O  O2318  1  0.69486000  0.52467000  0.52467000  1
  O  O2319  1  0.73614000  0.50970000  0.50970000  1
  O  O2320  1  0.63560000  0.43580000  0.43580000  1
  O  O2321  1  0.25510000  0.84929000  0.84929000  1
  O  O2322  1  0.19746000  0.79934000  0.79934000  1
  O  O2323  1  0.30514000  0.82981000  0.82981000  1
  O  O2324  1  0.26386000  0.77356000  0.77356000  1
  O  O2325  1  0.36440000  0.80020000  0.80020000  1
  O  O2326  1  0.00000000  0.15071000  0.40581000  1
  O  O2327  1  0.00000000  0.20066000  0.39812000  1
  O  O2328  1  0.00000000  0.17019000  0.47533000  1
  O  O2329  1  0.00000000  0.22644000  0.49030000  1
  O  O2330  1  0.00000000  0.19980000  0.56420000  1
  O  O2331  1  0.00000000  0.40581000  0.15071000  1
  O  O2332  1  0.00000000  0.39812000  0.20066000  1
  O  O2333  1  0.00000000  0.47533000  0.17019000  1
  O  O2334  1  0.00000000  0.49030000  0.22644000  1
  O  O2335  1  0.00000000  0.56420000  0.19980000  1
  O  O2336  1  0.59419000  0.74490000  0.59419000  1
  O  O2337  1  0.60188000  0.80254000  0.60188000  1
  O  O2338  1  0.52467000  0.69486000  0.52467000  1
  O  O2339  1  0.50970000  0.73614000  0.50970000  1
  O  O2340  1  0.43580000  0.63560000  0.43580000  1
  O  O2341  1  0.84929000  0.25510000  0.84929000  1
  O  O2342  1  0.79934000  0.19746000  0.79934000  1
  O  O2343  1  0.82981000  0.30514000  0.82981000  1
  O  O2344  1  0.77356000  0.26386000  0.77356000  1
  O  O2345  1  0.80020000  0.36440000  0.80020000  1
  O  O2346  1  0.40581000  1.00000000  0.15071000  1
  O  O2347  1  0.39812000  0.00000000  0.20066000  1
  O  O2348  1  0.47533000  0.00000000  0.17019000  1
  O  O2349  1  0.49030000  0.00000000  0.22644000  1
  O  O2350  1  0.56420000  0.00000000  0.19980000  1
  O  O2351  1  0.15071000  0.00000000  0.40581000  1
  O  O2352  1  0.20066000  0.00000000  0.39812000  1
  O  O2353  1  0.17019000  0.00000000  0.47533000  1
  O  O2354  1  0.22644000  0.00000000  0.49030000  1
  O  O2355  1  0.19980000  0.00000000  0.56420000  1
  O  O2356  1  0.59419000  0.59419000  0.74490000  1
  O  O2357  1  0.60188000  0.60188000  0.80254000  1
  O  O2358  1  0.52467000  0.52467000  0.69486000  1
  O  O2359  1  0.50970000  0.50970000  0.73614000  1
  O  O2360  1  0.43580000  0.43580000  0.63560000  1
  O  O2361  1  0.84929000  0.84929000  0.25510000  1
  O  O2362  1  0.79934000  0.79934000  0.19746000  1
  O  O2363  1  0.82981000  0.82981000  0.30514000  1
  O  O2364  1  0.77356000  0.77356000  0.26386000  1
  O  O2365  1  0.80020000  0.80020000  0.36440000  1
  O  O2366  1  0.15071000  0.40581000  0.00000000  1
  O  O2367  1  0.20066000  0.39812000  0.00000000  1
  O  O2368  1  0.17019000  0.47533000  0.00000000  1
  O  O2369  1  0.22644000  0.49030000  0.00000000  1
  O  O2370  1  0.19980000  0.56420000  0.00000000  1
  O  O2371  1  0.40581000  0.15071000  0.00000000  1
  O  O2372  1  0.39812000  0.20066000  0.00000000  1
  O  O2373  1  0.47533000  0.17019000  0.00000000  1
  O  O2374  1  0.49030000  0.22644000  0.00000000  1
  O  O2375  1  0.56420000  0.19980000  0.00000000  1
  O  O2376  1  0.76961000  0.24159000  0.47198000  1
  O  O2377  1  0.23039000  0.70237000  0.47198000  1
  O  O2378  1  0.23039000  0.75841000  0.52802000  1
  O  O2379  1  0.76961000  0.29763000  0.52802000  1
  O  O2380  1  0.29763000  0.52802000  0.76961000  1
  O  O2381  1  0.75841000  0.52802000  0.23039000  1
  O  O2382  1  0.70237000  0.47198000  0.23039000  1
  O  O2383  1  0.24159000  0.47198000  0.76961000  1
  O  O2384  1  0.52802000  0.23039000  0.75841000  1
  O  O2385  1  0.52802000  0.76961000  0.29763000  1
  O  O2386  1  0.47198000  0.76961000  0.24159000  1
  O  O2387  1  0.47198000  0.23039000  0.70237000  1
  O  O2388  1  0.76961000  0.52802000  0.29763000  1
  O  O2389  1  0.23039000  0.52802000  0.75841000  1
  O  O2390  1  0.23039000  0.47198000  0.70237000  1
  O  O2391  1  0.76961000  0.47198000  0.24159000  1
  O  O2392  1  0.29763000  0.76961000  0.52802000  1
  O  O2393  1  0.75841000  0.23039000  0.52802000  1
  O  O2394  1  0.70237000  0.23039000  0.47198000  1
  O  O2395  1  0.24159000  0.76961000  0.47198000  1
  O  O2396  1  0.52802000  0.29763000  0.76961000  1
  O  O2397  1  0.52802000  0.75841000  0.23039000  1
  O  O2398  1  0.47198000  0.70237000  0.23039000  1
  O  O2399  1  0.47198000  0.24159000  0.76961000  1
  O  O2400  1  0.73772000  0.27548000  0.46224000  1
  O  O2401  1  0.26228000  0.72452000  0.53776000  1
  O  O2402  1  0.18676000  0.72452000  0.46224000  1
  O  O2403  1  0.81324000  0.27548000  0.53776000  1
  O  O2404  1  0.27548000  0.53776000  0.81324000  1
  O  O2405  1  0.72452000  0.46224000  0.18676000  1
  O  O2406  1  0.72452000  0.53776000  0.26228000  1
  O  O2407  1  0.27548000  0.46224000  0.73772000  1
  O  O2408  1  0.46224000  0.18676000  0.72452000  1
  O  O2409  1  0.53776000  0.81324000  0.27548000  1
  O  O2410  1  0.46224000  0.73772000  0.27548000  1
  O  O2411  1  0.53776000  0.26228000  0.72452000  1
  O  O2412  1  0.73772000  0.46224000  0.27548000  1
  O  O2413  1  0.26228000  0.53776000  0.72452000  1
  O  O2414  1  0.18676000  0.46224000  0.72452000  1
  O  O2415  1  0.81324000  0.53776000  0.27548000  1
  O  O2416  1  0.27548000  0.73772000  0.46224000  1
  O  O2417  1  0.72452000  0.26228000  0.53776000  1
  O  O2418  1  0.72452000  0.18676000  0.46224000  1
  O  O2419  1  0.27548000  0.81324000  0.53776000  1
  O  O2420  1  0.46224000  0.27548000  0.73772000  1
  O  O2421  1  0.53776000  0.72452000  0.26228000  1
  O  O2422  1  0.46224000  0.72452000  0.18676000  1
  O  O2423  1  0.53776000  0.27548000  0.81324000  1
  S  S2424  1  0.75473000  0.23495000  0.34870000  1
  S  S2425  1  0.58686000  0.16686000  0.22240000  1
  S  S2426  1  0.24527000  0.59397000  0.48022000  1
  S  S2427  1  0.41314000  0.63554000  0.58000000  1
  S  S2428  1  0.11375000  0.76505000  0.51978000  1
  S  S2429  1  0.05554000  0.83314000  0.42000000  1
  S  S2430  1  0.88625000  0.40603000  0.65130000  1
  S  S2431  1  0.94446000  0.36446000  0.77760000  1
  S  S2432  1  0.40603000  0.65130000  0.88625000  1
  S  S2433  1  0.36446000  0.77760000  0.94446000  1
  S  S2434  1  0.76505000  0.51978000  0.11375000  1
  S  S2435  1  0.83314000  0.42000000  0.05554000  1
  S  S2436  1  0.59397000  0.48022000  0.24527000  1
  S  S2437  1  0.63554000  0.58000000  0.41314000  1
  S  S2438  1  0.23495000  0.34870000  0.75473000  1
  S  S2439  1  0.16686000  0.22240000  0.58686000  1
  S  S2440  1  0.51978000  0.11375000  0.76505000  1
  S  S2441  1  0.42000000  0.05554000  0.83314000  1
  S  S2442  1  0.65130000  0.88625000  0.40603000  1
  S  S2443  1  0.77760000  0.94446000  0.36446000  1
  S  S2444  1  0.34870000  0.75473000  0.23495000  1
  S  S2445  1  0.22240000  0.58686000  0.16686000  1
  S  S2446  1  0.48022000  0.24527000  0.59397000  1
  S  S2447  1  0.58000000  0.41314000  0.63554000  1
  S  S2448  1  0.75473000  0.51978000  0.40603000  1
  S  S2449  1  0.58686000  0.42000000  0.36446000  1
  S  S2450  1  0.24527000  0.65130000  0.76505000  1
  S  S2451  1  0.41314000  0.77760000  0.83314000  1
  S  S2452  1  0.11375000  0.34870000  0.59397000  1
  S  S2453  1  0.05554000  0.22240000  0.63554000  1
  S  S2454  1  0.88625000  0.48022000  0.23495000  1
  S  S2455  1  0.94446000  0.58000000  0.16686000  1
  S  S2456  1  0.40603000  0.75473000  0.51978000  1
  S  S2457  1  0.36446000  0.58686000  0.42000000  1
  S  S2458  1  0.76505000  0.24527000  0.65130000  1
  S  S2459  1  0.83314000  0.41314000  0.77760000  1
  S  S2460  1  0.59397000  0.11375000  0.34870000  1
  S  S2461  1  0.63554000  0.05554000  0.22240000  1
  S  S2462  1  0.23495000  0.88625000  0.48022000  1
  S  S2463  1  0.16686000  0.94446000  0.58000000  1
  S  S2464  1  0.51978000  0.40603000  0.75473000  1
  S  S2465  1  0.42000000  0.36446000  0.58686000  1
  S  S2466  1  0.65130000  0.76505000  0.24527000  1
  S  S2467  1  0.77760000  0.83314000  0.41314000  1
  S  S2468  1  0.34870000  0.59397000  0.11375000  1
  S  S2469  1  0.22240000  0.63554000  0.05554000  1
  S  S2470  1  0.48022000  0.23495000  0.88625000  1
  S  S2471  1  0.58000000  0.16686000  0.94446000  1
  S  S2472  1  0.24527000  0.76505000  0.65130000  1
  S  S2473  1  0.41314000  0.83314000  0.77760000  1
  S  S2474  1  0.75473000  0.40603000  0.51978000  1
  S  S2475  1  0.58686000  0.36446000  0.42000000  1
  S  S2476  1  0.88625000  0.23495000  0.48022000  1
  S  S2477  1  0.94446000  0.16686000  0.58000000  1
  S  S2478  1  0.11375000  0.59397000  0.34870000  1
  S  S2479  1  0.05554000  0.63554000  0.22240000  1
  S  S2480  1  0.59397000  0.34870000  0.11375000  1
  S  S2481  1  0.63554000  0.22240000  0.05554000  1
  S  S2482  1  0.23495000  0.48022000  0.88625000  1
  S  S2483  1  0.16686000  0.58000000  0.94446000  1
  S  S2484  1  0.40603000  0.51978000  0.75473000  1
  S  S2485  1  0.36446000  0.42000000  0.58686000  1
  S  S2486  1  0.76505000  0.65130000  0.24527000  1
  S  S2487  1  0.83314000  0.77760000  0.41314000  1
  S  S2488  1  0.48022000  0.88625000  0.23495000  1
  S  S2489  1  0.58000000  0.94446000  0.16686000  1
  S  S2490  1  0.34870000  0.11375000  0.59397000  1
  S  S2491  1  0.22240000  0.05554000  0.63554000  1
  S  S2492  1  0.65130000  0.24527000  0.76505000  1
  S  S2493  1  0.77760000  0.41314000  0.83314000  1
  S  S2494  1  0.51978000  0.75473000  0.40603000  1
  S  S2495  1  0.42000000  0.58686000  0.36446000  1
  S  S2496  1  0.24527000  0.48022000  0.59397000  1
  S  S2497  1  0.41314000  0.58000000  0.63554000  1
  S  S2498  1  0.75473000  0.34870000  0.23495000  1
  S  S2499  1  0.58686000  0.22240000  0.16686000  1
  S  S2500  1  0.88625000  0.65130000  0.40603000  1
  S  S2501  1  0.94446000  0.77760000  0.36446000  1
  S  S2502  1  0.11375000  0.51978000  0.76505000  1
  S  S2503  1  0.05554000  0.42000000  0.83314000  1
  S  S2504  1  0.59397000  0.24527000  0.48022000  1
  S  S2505  1  0.63554000  0.41314000  0.58000000  1
  S  S2506  1  0.23495000  0.75473000  0.34870000  1
  S  S2507  1  0.16686000  0.58686000  0.22240000  1
  S  S2508  1  0.40603000  0.88625000  0.65130000  1
  S  S2509  1  0.36446000  0.94446000  0.77760000  1
  S  S2510  1  0.76505000  0.11375000  0.51978000  1
  S  S2511  1  0.83314000  0.05554000  0.42000000  1
  S  S2512  1  0.48022000  0.59397000  0.24527000  1
  S  S2513  1  0.58000000  0.63554000  0.41314000  1
  S  S2514  1  0.34870000  0.23495000  0.75473000  1
  S  S2515  1  0.22240000  0.16686000  0.58686000  1
  S  S2516  1  0.65130000  0.40603000  0.88625000  1
  S  S2517  1  0.77760000  0.36446000  0.94446000  1
  S  S2518  1  0.51978000  0.76505000  0.11375000  1
  S  S2519  1  0.42000000  0.83314000  0.05554000  1
  S  S2520  1  0.58723000  0.08723000  0.17446000  1
  S  S2521  1  0.41277000  0.58723000  0.50000000  1
  S  S2522  1  0.08723000  0.91277000  0.50000000  1
  S  S2523  1  0.91277000  0.41277000  0.82554000  1
  S  S2524  1  0.41277000  0.82554000  0.91277000  1
  S  S2525  1  0.91277000  0.50000000  0.08723000  1
  S  S2526  1  0.58723000  0.50000000  0.41277000  1
  S  S2527  1  0.08723000  0.17446000  0.58723000  1
  S  S2528  1  0.50000000  0.08723000  0.91277000  1
  S  S2529  1  0.82554000  0.91277000  0.41277000  1
  S  S2530  1  0.17446000  0.58723000  0.08723000  1
  S  S2531  1  0.50000000  0.41277000  0.58723000  1
  S  S2532  1  0.41277000  0.91277000  0.82554000  1
  S  S2533  1  0.58723000  0.41277000  0.50000000  1
  S  S2534  1  0.91277000  0.08723000  0.50000000  1
  S  S2535  1  0.08723000  0.58723000  0.17446000  1
  S  S2536  1  0.58723000  0.17446000  0.08723000  1
  S  S2537  1  0.08723000  0.50000000  0.91277000  1
  S  S2538  1  0.41277000  0.50000000  0.58723000  1
  S  S2539  1  0.91277000  0.82554000  0.41277000  1
  S  S2540  1  0.50000000  0.91277000  0.08723000  1
  S  S2541  1  0.17446000  0.08723000  0.58723000  1
  S  S2542  1  0.82554000  0.41277000  0.91277000  1
  S  S2543  1  0.50000000  0.58723000  0.41277000  1
  S  S2544  1  0.65986000  0.00000000  0.07850000  1
  S  S2545  1  0.34014000  0.41864000  0.34014000  1
  S  S2546  1  0.07850000  0.00000000  0.65986000  1
  S  S2547  1  0.92150000  0.58136000  0.92150000  1
  S  S2548  1  0.58136000  0.92150000  0.92150000  1
  S  S2549  1  0.00000000  0.65986000  0.07850000  1
  S  S2550  1  0.41864000  0.34014000  0.34014000  1
  S  S2551  1  0.00000000  0.07850000  0.65986000  1
  S  S2552  1  0.65986000  0.07850000  0.00000000  1
  S  S2553  1  0.92150000  0.92150000  0.58136000  1
  S  S2554  1  0.07850000  0.65986000  0.00000000  1
  S  S2555  1  0.34014000  0.34014000  0.41864000  1
  S  S2556  1  0.65986000  0.65986000  0.58136000  1
  S  S2557  1  0.34014000  0.92150000  0.00000000  1
  S  S2558  1  0.07850000  0.07850000  0.41864000  1
  S  S2559  1  0.92150000  0.34014000  0.00000000  1
  S  S2560  1  0.58136000  0.65986000  0.65986000  1
  S  S2561  1  0.00000000  0.34014000  0.92150000  1
  S  S2562  1  0.41864000  0.07850000  0.07850000  1
  S  S2563  1  0.00000000  0.92150000  0.34014000  1
  S  S2564  1  0.65986000  0.58136000  0.65986000  1
  S  S2565  1  0.92150000  0.00000000  0.34014000  1
  S  S2566  1  0.07850000  0.41864000  0.07850000  1
  S  S2567  1  0.34014000  0.00000000  0.92150000  1
  S  S2568  1  0.88324000  0.19139000  0.30815000  1
  S  S2569  1  0.11676000  0.42491000  0.30815000  1
  S  S2570  1  0.11676000  0.80861000  0.69185000  1
  S  S2571  1  0.88324000  0.57509000  0.69185000  1
  S  S2572  1  0.57509000  0.69185000  0.88324000  1
  S  S2573  1  0.80861000  0.69185000  0.11676000  1
  S  S2574  1  0.42491000  0.30815000  0.11676000  1
  S  S2575  1  0.19139000  0.30815000  0.88324000  1
  S  S2576  1  0.69185000  0.11676000  0.80861000  1
  S  S2577  1  0.69185000  0.88324000  0.57509000  1
  S  S2578  1  0.30815000  0.88324000  0.19139000  1
  S  S2579  1  0.30815000  0.11676000  0.42491000  1
  S  S2580  1  0.88324000  0.69185000  0.57509000  1
  S  S2581  1  0.11676000  0.69185000  0.80861000  1
  S  S2582  1  0.11676000  0.30815000  0.42491000  1
  S  S2583  1  0.88324000  0.30815000  0.19139000  1
  S  S2584  1  0.57509000  0.88324000  0.69185000  1
  S  S2585  1  0.80861000  0.11676000  0.69185000  1
  S  S2586  1  0.42491000  0.11676000  0.30815000  1
  S  S2587  1  0.19139000  0.88324000  0.30815000  1
  S  S2588  1  0.69185000  0.57509000  0.88324000  1
  S  S2589  1  0.69185000  0.80861000  0.11676000  1
  S  S2590  1  0.30815000  0.42491000  0.11676000  1
  S  S2591  1  0.30815000  0.19139000  0.88324000  1
  Zr  Zr2592  1  0.77088000  0.14973000  0.19627000  1
  Zr  Zr2593  1  0.71236000  0.17157000  0.21835000  1
  Zr  Zr2594  1  0.22912000  0.42539000  0.37885000  1
  Zr  Zr2595  1  0.28764000  0.50599000  0.45921000  1
  Zr  Zr2596  1  0.04654000  0.85027000  0.62115000  1
  Zr  Zr2597  1  0.04678000  0.82843000  0.54079000  1
  Zr  Zr2598  1  0.95346000  0.57461000  0.80373000  1
  Zr  Zr2599  1  0.95322000  0.49401000  0.78165000  1
  Zr  Zr2600  1  0.57461000  0.80373000  0.95346000  1
  Zr  Zr2601  1  0.49401000  0.78165000  0.95322000  1
  Zr  Zr2602  1  0.85027000  0.62115000  0.04654000  1
  Zr  Zr2603  1  0.82843000  0.54079000  0.04678000  1
  Zr  Zr2604  1  0.42539000  0.37885000  0.22912000  1
  Zr  Zr2605  1  0.50599000  0.45921000  0.28764000  1
  Zr  Zr2606  1  0.14973000  0.19627000  0.77088000  1
  Zr  Zr2607  1  0.17157000  0.21835000  0.71236000  1
  Zr  Zr2608  1  0.62115000  0.04654000  0.85027000  1
  Zr  Zr2609  1  0.54079000  0.04678000  0.82843000  1
  Zr  Zr2610  1  0.80373000  0.95346000  0.57461000  1
  Zr  Zr2611  1  0.78165000  0.95322000  0.49401000  1
  Zr  Zr2612  1  0.19627000  0.77088000  0.14973000  1
  Zr  Zr2613  1  0.21835000  0.71236000  0.17157000  1
  Zr  Zr2614  1  0.37885000  0.22912000  0.42539000  1
  Zr  Zr2615  1  0.45921000  0.28764000  0.50599000  1
  Zr  Zr2616  1  0.77088000  0.62115000  0.57461000  1
  Zr  Zr2617  1  0.71236000  0.54079000  0.49401000  1
  Zr  Zr2618  1  0.22912000  0.80373000  0.85027000  1
  Zr  Zr2619  1  0.28764000  0.78165000  0.82843000  1
  Zr  Zr2620  1  0.04654000  0.19627000  0.42539000  1
  Zr  Zr2621  1  0.04678000  0.21835000  0.50599000  1
  Zr  Zr2622  1  0.95346000  0.37885000  0.14973000  1
  Zr  Zr2623  1  0.95322000  0.45921000  0.17157000  1
  Zr  Zr2624  1  0.57461000  0.77088000  0.62115000  1
  Zr  Zr2625  1  0.49401000  0.71236000  0.54079000  1
  Zr  Zr2626  1  0.85027000  0.22912000  0.80373000  1
  Zr  Zr2627  1  0.82843000  0.28764000  0.78165000  1
  Zr  Zr2628  1  0.42539000  0.04654000  0.19627000  1
  Zr  Zr2629  1  0.50599000  0.04678000  0.21835000  1
  Zr  Zr2630  1  0.14973000  0.95346000  0.37885000  1
  Zr  Zr2631  1  0.17157000  0.95322000  0.45921000  1
  Zr  Zr2632  1  0.62115000  0.57461000  0.77088000  1
  Zr  Zr2633  1  0.54079000  0.49401000  0.71236000  1
  Zr  Zr2634  1  0.80373000  0.85027000  0.22912000  1
  Zr  Zr2635  1  0.78165000  0.82843000  0.28764000  1
  Zr  Zr2636  1  0.19627000  0.42539000  0.04654000  1
  Zr  Zr2637  1  0.21835000  0.50599000  0.04678000  1
  Zr  Zr2638  1  0.37885000  0.14973000  0.95346000  1
  Zr  Zr2639  1  0.45921000  0.17157000  0.95322000  1
  Zr  Zr2640  1  0.22912000  0.85027000  0.80373000  1
  Zr  Zr2641  1  0.28764000  0.82843000  0.78165000  1
  Zr  Zr2642  1  0.77088000  0.57461000  0.62115000  1
  Zr  Zr2643  1  0.71236000  0.49401000  0.54079000  1
  Zr  Zr2644  1  0.95346000  0.14973000  0.37885000  1
  Zr  Zr2645  1  0.95322000  0.17157000  0.45921000  1
  Zr  Zr2646  1  0.04654000  0.42539000  0.19627000  1
  Zr  Zr2647  1  0.04678000  0.50599000  0.21835000  1
  Zr  Zr2648  1  0.42539000  0.19627000  0.04654000  1
  Zr  Zr2649  1  0.50599000  0.21835000  0.04678000  1
  Zr  Zr2650  1  0.14973000  0.37885000  0.95346000  1
  Zr  Zr2651  1  0.17157000  0.45921000  0.95322000  1
  Zr  Zr2652  1  0.57461000  0.62115000  0.77088000  1
  Zr  Zr2653  1  0.49401000  0.54079000  0.71236000  1
  Zr  Zr2654  1  0.85027000  0.80373000  0.22912000  1
  Zr  Zr2655  1  0.82843000  0.78165000  0.28764000  1
  Zr  Zr2656  1  0.37885000  0.95346000  0.14973000  1
  Zr  Zr2657  1  0.45921000  0.95322000  0.17157000  1
  Zr  Zr2658  1  0.19627000  0.04654000  0.42539000  1
  Zr  Zr2659  1  0.21835000  0.04678000  0.50599000  1
  Zr  Zr2660  1  0.80373000  0.22912000  0.85027000  1
  Zr  Zr2661  1  0.78165000  0.28764000  0.82843000  1
  Zr  Zr2662  1  0.62115000  0.77088000  0.57461000  1
  Zr  Zr2663  1  0.54079000  0.71236000  0.49401000  1
  Zr  Zr2664  1  0.22912000  0.37885000  0.42539000  1
  Zr  Zr2665  1  0.28764000  0.45921000  0.50599000  1
  Zr  Zr2666  1  0.77088000  0.19627000  0.14973000  1
  Zr  Zr2667  1  0.71236000  0.21835000  0.17157000  1
  Zr  Zr2668  1  0.95346000  0.80373000  0.57461000  1
  Zr  Zr2669  1  0.95322000  0.78165000  0.49401000  1
  Zr  Zr2670  1  0.04654000  0.62115000  0.85027000  1
  Zr  Zr2671  1  0.04678000  0.54079000  0.82843000  1
  Zr  Zr2672  1  0.42539000  0.22912000  0.37885000  1
  Zr  Zr2673  1  0.50599000  0.28764000  0.45921000  1
  Zr  Zr2674  1  0.14973000  0.77088000  0.19627000  1
  Zr  Zr2675  1  0.17157000  0.71236000  0.21835000  1
  Zr  Zr2676  1  0.57461000  0.95346000  0.80373000  1
  Zr  Zr2677  1  0.49401000  0.95322000  0.78165000  1
  Zr  Zr2678  1  0.85027000  0.04654000  0.62115000  1
  Zr  Zr2679  1  0.82843000  0.04678000  0.54079000  1
  Zr  Zr2680  1  0.37885000  0.42539000  0.22912000  1
  Zr  Zr2681  1  0.45921000  0.50599000  0.28764000  1
  Zr  Zr2682  1  0.19627000  0.14973000  0.77088000  1
  Zr  Zr2683  1  0.21835000  0.17157000  0.71236000  1
  Zr  Zr2684  1  0.80373000  0.57461000  0.95346000  1
  Zr  Zr2685  1  0.78165000  0.49401000  0.95322000  1
  Zr  Zr2686  1  0.62115000  0.85027000  0.04654000  1
  Zr  Zr2687  1  0.54079000  0.82843000  0.04678000  1
  Zr  Zr2688  1  0.69136000  0.12961000  0.12961000  1
  Zr  Zr2689  1  0.79134000  0.23825000  0.23825000  1
  Zr  Zr2690  1  0.30864000  0.43825000  0.43825000  1
  Zr  Zr2691  1  0.20866000  0.44691000  0.44691000  1
  Zr  Zr2692  1  0.00000000  0.87039000  0.56175000  1
  Zr  Zr2693  1  0.00000000  0.76175000  0.55309000  1
  Zr  Zr2694  1  0.00000000  0.56175000  0.87039000  1
  Zr  Zr2695  1  0.00000000  0.55309000  0.76175000  1
  Zr  Zr2696  1  0.56175000  0.87039000  0.00000000  1
  Zr  Zr2697  1  0.55309000  0.76175000  0.00000000  1
  Zr  Zr2698  1  0.87039000  0.56175000  0.00000000  1
  Zr  Zr2699  1  0.76175000  0.55309000  0.00000000  1
  Zr  Zr2700  1  0.43825000  0.43825000  0.30864000  1
  Zr  Zr2701  1  0.44691000  0.44691000  0.20866000  1
  Zr  Zr2702  1  0.12961000  0.12961000  0.69136000  1
  Zr  Zr2703  1  0.23825000  0.23825000  0.79134000  1
  Zr  Zr2704  1  0.56175000  1.00000000  0.87039000  1
  Zr  Zr2705  1  0.55309000  1.00000000  0.76175000  1
  Zr  Zr2706  1  0.87039000  1.00000000  0.56175000  1
  Zr  Zr2707  1  0.76175000  0.00000000  0.55309000  1
  Zr  Zr2708  1  0.12961000  0.69136000  0.12961000  1
  Zr  Zr2709  1  0.23825000  0.79134000  0.23825000  1
  Zr  Zr2710  1  0.43825000  0.30864000  0.43825000  1
  Zr  Zr2711  1  0.44691000  0.20866000  0.44691000  1
  Zr  Zr2712  1  0.69136000  0.56175000  0.56175000  1
  Zr  Zr2713  1  0.79134000  0.55309000  0.55309000  1
  Zr  Zr2714  1  0.30864000  0.87039000  0.87039000  1
  Zr  Zr2715  1  0.20866000  0.76175000  0.76175000  1
  Zr  Zr2716  1  0.00000000  0.12961000  0.43825000  1
  Zr  Zr2717  1  0.00000000  0.23825000  0.44691000  1
  Zr  Zr2718  1  0.00000000  0.43825000  0.12961000  1
  Zr  Zr2719  1  0.00000000  0.44691000  0.23825000  1
  Zr  Zr2720  1  0.56175000  0.69136000  0.56175000  1
  Zr  Zr2721  1  0.55309000  0.79134000  0.55309000  1
  Zr  Zr2722  1  0.87039000  0.30864000  0.87039000  1
  Zr  Zr2723  1  0.76175000  0.20866000  0.76175000  1
  Zr  Zr2724  1  0.43825000  0.00000000  0.12961000  1
  Zr  Zr2725  1  0.44691000  0.00000000  0.23825000  1
  Zr  Zr2726  1  0.12961000  0.00000000  0.43825000  1
  Zr  Zr2727  1  0.23825000  0.00000000  0.44691000  1
  Zr  Zr2728  1  0.56175000  0.56175000  0.69136000  1
  Zr  Zr2729  1  0.55309000  0.55309000  0.79134000  1
  Zr  Zr2730  1  0.87039000  0.87039000  0.30864000  1
  Zr  Zr2731  1  0.76175000  0.76175000  0.20866000  1
  Zr  Zr2732  1  0.12961000  0.43825000  0.00000000  1
  Zr  Zr2733  1  0.23825000  0.44691000  0.00000000  1
  Zr  Zr2734  1  0.43825000  0.12961000  0.00000000  1
  Zr  Zr2735  1  0.44691000  0.23825000  0.00000000  1
  Zr  Zr2736  1  0.71703000  0.21703000  0.43406000  1
  Zr  Zr2737  1  0.28297000  0.71703000  0.50000000  1
  Zr  Zr2738  1  0.21703000  0.78297000  0.50000000  1
  Zr  Zr2739  1  0.78297000  0.28297000  0.56594000  1
  Zr  Zr2740  1  0.28297000  0.56594000  0.78297000  1
  Zr  Zr2741  1  0.78297000  0.50000000  0.21703000  1
  Zr  Zr2742  1  0.71703000  0.50000000  0.28297000  1
  Zr  Zr2743  1  0.21703000  0.43406000  0.71703000  1
  Zr  Zr2744  1  0.50000000  0.21703000  0.78297000  1
  Zr  Zr2745  1  0.56594000  0.78297000  0.28297000  1
  Zr  Zr2746  1  0.43406000  0.71703000  0.21703000  1
  Zr  Zr2747  1  0.50000000  0.28297000  0.71703000  1
  Zr  Zr2748  1  0.28297000  0.78297000  0.56594000  1
  Zr  Zr2749  1  0.71703000  0.28297000  0.50000000  1
  Zr  Zr2750  1  0.78297000  0.21703000  0.50000000  1
  Zr  Zr2751  1  0.21703000  0.71703000  0.43406000  1
  Zr  Zr2752  1  0.71703000  0.43406000  0.21703000  1
  Zr  Zr2753  1  0.21703000  0.50000000  0.78297000  1
  Zr  Zr2754  1  0.28297000  0.50000000  0.71703000  1
  Zr  Zr2755  1  0.78297000  0.56594000  0.28297000  1
  Zr  Zr2756  1  0.50000000  0.78297000  0.21703000  1
  Zr  Zr2757  1  0.43406000  0.21703000  0.71703000  1
  Zr  Zr2758  1  0.56594000  0.28297000  0.78297000  1
  Zr  Zr2759  1  0.50000000  0.71703000  0.28297000  1
  Zr  Zr2760  1  0.79596000  0.29596000  0.50000000  1
  Zr  Zr2761  1  0.20404000  0.70404000  0.50000000  1
  Zr  Zr2762  1  0.29596000  0.50000000  0.79596000  1
  Zr  Zr2763  1  0.70404000  0.50000000  0.20404000  1
  Zr  Zr2764  1  0.50000000  0.20404000  0.70404000  1
  Zr  Zr2765  1  0.50000000  0.79596000  0.29596000  1
  Zr  Zr2766  1  0.79596000  0.50000000  0.29596000  1
  Zr  Zr2767  1  0.20404000  0.50000000  0.70404000  1
  Zr  Zr2768  1  0.29596000  0.79596000  0.50000000  1
  Zr  Zr2769  1  0.70404000  0.20404000  0.50000000  1
  Zr  Zr2770  1  0.50000000  0.29596000  0.79596000  1
  Zr  Zr2771  1  0.50000000  0.70404000  0.20404000  1
