# generated using pymatgen
data_Zr3H48(C33O8)2
_symmetry_space_group_name_H-M   'P 1'
_cell_length_a   32.60030000
_cell_length_b   32.60030000
_cell_length_c   32.60030000
_cell_angle_alpha   90.00000000
_cell_angle_beta   90.00000000
_cell_angle_gamma   90.00000000
_symmetry_Int_Tables_number   1
_chemical_formula_structural   Zr3H48(C33O8)2
_chemical_formula_sum   'Zr24 H384 C528 O128'
_cell_volume   34646.93249280
_cell_formula_units_Z   8
loop_
 _symmetry_equiv_pos_site_id
 _symmetry_equiv_pos_as_xyz
  1  'x, y, z'
loop_
 _atom_site_type_symbol
 _atom_site_label
 _atom_site_symmetry_multiplicity
 _atom_site_fract_x
 _atom_site_fract_y
 _atom_site_fract_z
 _atom_site_occupancy
  Zr  Zr0  1  0.00000000  0.00000000  0.07522000  1
  Zr  Zr1  1  0.00000000  0.50000000  0.57522000  1
  Zr  Zr2  1  0.50000000  0.00000000  0.57522000  1
  Zr  Zr3  1  0.50000000  0.50000000  0.07522000  1
  Zr  Zr4  1  0.00000000  0.00000000  0.92478000  1
  Zr  Zr5  1  0.00000000  0.50000000  0.42478000  1
  Zr  Zr6  1  0.50000000  0.00000000  0.42478000  1
  Zr  Zr7  1  0.50000000  0.50000000  0.92478000  1
  Zr  Zr8  1  0.07522000  0.00000000  0.00000000  1
  Zr  Zr9  1  0.07522000  0.50000000  0.50000000  1
  Zr  Zr10  1  0.57522000  0.00000000  0.50000000  1
  Zr  Zr11  1  0.57522000  0.50000000  0.00000000  1
  Zr  Zr12  1  0.92478000  0.00000000  0.00000000  1
  Zr  Zr13  1  0.92478000  0.50000000  0.50000000  1
  Zr  Zr14  1  0.42478000  0.00000000  0.50000000  1
  Zr  Zr15  1  0.42478000  0.50000000  0.00000000  1
  Zr  Zr16  1  0.00000000  0.07522000  0.00000000  1
  Zr  Zr17  1  0.00000000  0.57522000  0.50000000  1
  Zr  Zr18  1  0.50000000  0.07522000  0.50000000  1
  Zr  Zr19  1  0.50000000  0.57522000  0.00000000  1
  Zr  Zr20  1  0.00000000  0.92478000  0.00000000  1
  Zr  Zr21  1  0.00000000  0.42478000  0.50000000  1
  Zr  Zr22  1  0.50000000  0.92478000  0.50000000  1
  Zr  Zr23  1  0.50000000  0.42478000  0.00000000  1
  H  H24  1  0.21620000  0.59680000  0.73350000  1
  H  H25  1  0.19520000  0.57200000  0.76900000  1
  H  H26  1  0.18040000  0.56620000  0.72360000  1
  H  H27  1  0.71620000  0.09680000  0.73350000  1
  H  H28  1  0.69520000  0.07200000  0.76900000  1
  H  H29  1  0.68040000  0.06620000  0.72360000  1
  H  H30  1  0.78380000  0.90320000  0.23350000  1
  H  H31  1  0.80480000  0.92800000  0.26900000  1
  H  H32  1  0.81960000  0.93380000  0.22360000  1
  H  H33  1  0.78380000  0.40320000  0.73350000  1
  H  H34  1  0.80480000  0.42800000  0.76900000  1
  H  H35  1  0.81960000  0.43380000  0.72360000  1
  H  H36  1  0.28380000  0.40320000  0.23350000  1
  H  H37  1  0.30480000  0.42800000  0.26900000  1
  H  H38  1  0.31960000  0.43380000  0.22360000  1
  H  H39  1  0.28380000  0.09680000  0.26650000  1
  H  H40  1  0.30480000  0.07200000  0.23100000  1
  H  H41  1  0.31960000  0.06620000  0.27640000  1
  H  H42  1  0.73350000  0.71620000  0.09680000  1
  H  H43  1  0.76900000  0.69520000  0.07200000  1
  H  H44  1  0.72360000  0.68040000  0.06620000  1
  H  H45  1  0.23350000  0.78380000  0.90320000  1
  H  H46  1  0.26900000  0.80480000  0.92800000  1
  H  H47  1  0.22360000  0.81960000  0.93380000  1
  H  H48  1  0.23350000  0.28380000  0.40320000  1
  H  H49  1  0.26900000  0.30480000  0.42800000  1
  H  H50  1  0.22360000  0.31960000  0.43380000  1
  H  H51  1  0.73350000  0.78380000  0.40320000  1
  H  H52  1  0.76900000  0.80480000  0.42800000  1
  H  H53  1  0.72360000  0.81960000  0.43380000  1
  H  H54  1  0.73350000  0.28380000  0.90320000  1
  H  H55  1  0.76900000  0.30480000  0.92800000  1
  H  H56  1  0.72360000  0.31960000  0.93380000  1
  H  H57  1  0.76650000  0.28380000  0.59680000  1
  H  H58  1  0.73100000  0.30480000  0.57200000  1
  H  H59  1  0.77640000  0.31960000  0.56620000  1
  H  H60  1  0.09680000  0.73350000  0.71620000  1
  H  H61  1  0.07200000  0.76900000  0.69520000  1
  H  H62  1  0.06620000  0.72360000  0.68040000  1
  H  H63  1  0.59680000  0.23350000  0.71620000  1
  H  H64  1  0.57200000  0.26900000  0.69520000  1
  H  H65  1  0.56620000  0.22360000  0.68040000  1
  H  H66  1  0.59680000  0.73350000  0.21620000  1
  H  H67  1  0.57200000  0.76900000  0.19520000  1
  H  H68  1  0.56620000  0.72360000  0.18040000  1
  H  H69  1  0.90320000  0.73350000  0.28380000  1
  H  H70  1  0.92800000  0.76900000  0.30480000  1
  H  H71  1  0.93380000  0.72360000  0.31960000  1
  H  H72  1  0.09680000  0.21620000  0.76650000  1
  H  H73  1  0.07200000  0.19520000  0.73100000  1
  H  H74  1  0.06620000  0.18040000  0.77640000  1
  H  H75  1  0.59680000  0.21620000  0.26650000  1
  H  H76  1  0.57200000  0.19520000  0.23100000  1
  H  H77  1  0.56620000  0.18040000  0.27640000  1
  H  H78  1  0.59680000  0.71620000  0.76650000  1
  H  H79  1  0.57200000  0.69520000  0.73100000  1
  H  H80  1  0.56620000  0.68040000  0.77640000  1
  H  H81  1  0.90320000  0.28380000  0.26650000  1
  H  H82  1  0.92800000  0.30480000  0.23100000  1
  H  H83  1  0.93380000  0.31960000  0.27640000  1
  H  H84  1  0.40320000  0.78380000  0.26650000  1
  H  H85  1  0.42800000  0.80480000  0.23100000  1
  H  H86  1  0.43380000  0.81960000  0.27640000  1
  H  H87  1  0.40320000  0.28380000  0.76650000  1
  H  H88  1  0.42800000  0.30480000  0.73100000  1
  H  H89  1  0.43380000  0.31960000  0.77640000  1
  H  H90  1  0.21620000  0.23350000  0.90320000  1
  H  H91  1  0.19520000  0.26900000  0.92800000  1
  H  H92  1  0.18040000  0.22360000  0.93380000  1
  H  H93  1  0.71620000  0.23350000  0.40320000  1
  H  H94  1  0.69520000  0.26900000  0.42800000  1
  H  H95  1  0.68040000  0.22360000  0.43380000  1
  H  H96  1  0.23350000  0.59680000  0.28380000  1
  H  H97  1  0.26900000  0.57200000  0.30480000  1
  H  H98  1  0.22360000  0.56620000  0.31960000  1
  H  H99  1  0.26650000  0.09680000  0.71620000  1
  H  H100  1  0.23100000  0.07200000  0.69520000  1
  H  H101  1  0.27640000  0.06620000  0.68040000  1
  H  H102  1  0.76650000  0.40320000  0.28380000  1
  H  H103  1  0.73100000  0.42800000  0.30480000  1
  H  H104  1  0.77640000  0.43380000  0.31960000  1
  H  H105  1  0.78380000  0.90320000  0.76650000  1
  H  H106  1  0.80480000  0.92800000  0.73100000  1
  H  H107  1  0.81960000  0.93380000  0.77640000  1
  H  H108  1  0.28380000  0.40320000  0.76650000  1
  H  H109  1  0.30480000  0.42800000  0.73100000  1
  H  H110  1  0.31960000  0.43380000  0.77640000  1
  H  H111  1  0.71620000  0.09680000  0.26650000  1
  H  H112  1  0.69520000  0.07200000  0.23100000  1
  H  H113  1  0.68040000  0.06620000  0.27640000  1
  H  H114  1  0.71620000  0.59680000  0.76650000  1
  H  H115  1  0.69520000  0.57200000  0.73100000  1
  H  H116  1  0.68040000  0.56620000  0.77640000  1
  H  H117  1  0.21620000  0.90320000  0.23350000  1
  H  H118  1  0.19520000  0.92800000  0.26900000  1
  H  H119  1  0.18040000  0.93380000  0.22360000  1
  H  H120  1  0.76650000  0.78380000  0.90320000  1
  H  H121  1  0.73100000  0.80480000  0.92800000  1
  H  H122  1  0.77640000  0.81960000  0.93380000  1
  H  H123  1  0.76650000  0.21620000  0.09680000  1
  H  H124  1  0.73100000  0.19520000  0.07200000  1
  H  H125  1  0.77640000  0.18040000  0.06620000  1
  H  H126  1  0.76650000  0.71620000  0.59680000  1
  H  H127  1  0.73100000  0.69520000  0.57200000  1
  H  H128  1  0.77640000  0.68040000  0.56620000  1
  H  H129  1  0.26650000  0.21620000  0.59680000  1
  H  H130  1  0.23100000  0.19520000  0.57200000  1
  H  H131  1  0.27640000  0.18040000  0.56620000  1
  H  H132  1  0.26650000  0.71620000  0.09680000  1
  H  H133  1  0.23100000  0.69520000  0.07200000  1
  H  H134  1  0.27640000  0.68040000  0.06620000  1
  H  H135  1  0.23350000  0.71620000  0.40320000  1
  H  H136  1  0.26900000  0.69520000  0.42800000  1
  H  H137  1  0.22360000  0.68040000  0.43380000  1
  H  H138  1  0.90320000  0.76650000  0.78380000  1
  H  H139  1  0.92800000  0.73100000  0.80480000  1
  H  H140  1  0.93380000  0.77640000  0.81960000  1
  H  H141  1  0.09680000  0.76650000  0.21620000  1
  H  H142  1  0.07200000  0.73100000  0.19520000  1
  H  H143  1  0.06620000  0.77640000  0.18040000  1
  H  H144  1  0.90320000  0.28380000  0.73350000  1
  H  H145  1  0.92800000  0.30480000  0.76900000  1
  H  H146  1  0.93380000  0.31960000  0.72360000  1
  H  H147  1  0.40320000  0.78380000  0.73350000  1
  H  H148  1  0.42800000  0.80480000  0.76900000  1
  H  H149  1  0.43380000  0.81960000  0.72360000  1
  H  H150  1  0.40320000  0.28380000  0.23350000  1
  H  H151  1  0.42800000  0.30480000  0.26900000  1
  H  H152  1  0.43380000  0.31960000  0.22360000  1
  H  H153  1  0.09680000  0.21620000  0.23350000  1
  H  H154  1  0.07200000  0.19520000  0.26900000  1
  H  H155  1  0.06620000  0.18040000  0.22360000  1
  H  H156  1  0.28380000  0.76650000  0.59680000  1
  H  H157  1  0.30480000  0.73100000  0.57200000  1
  H  H158  1  0.31960000  0.77640000  0.56620000  1
  H  H159  1  0.28380000  0.26650000  0.09680000  1
  H  H160  1  0.30480000  0.23100000  0.07200000  1
  H  H161  1  0.31960000  0.27640000  0.06620000  1
  H  H162  1  0.23350000  0.90320000  0.78380000  1
  H  H163  1  0.26900000  0.92800000  0.80480000  1
  H  H164  1  0.22360000  0.93380000  0.81960000  1
  H  H165  1  0.73350000  0.59680000  0.21620000  1
  H  H166  1  0.76900000  0.57200000  0.19520000  1
  H  H167  1  0.72360000  0.56620000  0.18040000  1
  H  H168  1  0.08950000  0.00000000  0.17540000  1
  H  H169  1  0.13950000  0.00000000  0.22530000  1
  H  H170  1  0.08950000  0.50000000  0.67540000  1
  H  H171  1  0.13950000  0.50000000  0.72530000  1
  H  H172  1  0.58950000  0.00000000  0.67540000  1
  H  H173  1  0.63950000  0.00000000  0.72530000  1
  H  H174  1  0.58950000  0.50000000  0.17540000  1
  H  H175  1  0.63950000  0.50000000  0.22530000  1
  H  H176  1  0.91050000  0.00000000  0.17540000  1
  H  H177  1  0.86050000  0.00000000  0.22530000  1
  H  H178  1  0.91050000  0.50000000  0.67540000  1
  H  H179  1  0.86050000  0.50000000  0.72530000  1
  H  H180  1  0.41050000  0.00000000  0.67540000  1
  H  H181  1  0.36050000  0.00000000  0.72530000  1
  H  H182  1  0.41050000  0.50000000  0.17540000  1
  H  H183  1  0.36050000  0.50000000  0.22530000  1
  H  H184  1  0.91050000  0.00000000  0.82460000  1
  H  H185  1  0.86050000  0.00000000  0.77470000  1
  H  H186  1  0.91050000  0.50000000  0.32460000  1
  H  H187  1  0.86050000  0.50000000  0.27470000  1
  H  H188  1  0.41050000  0.00000000  0.32460000  1
  H  H189  1  0.36050000  0.00000000  0.27470000  1
  H  H190  1  0.41050000  0.50000000  0.82460000  1
  H  H191  1  0.36050000  0.50000000  0.77470000  1
  H  H192  1  0.08950000  0.00000000  0.82460000  1
  H  H193  1  0.13950000  0.00000000  0.77470000  1
  H  H194  1  0.08950000  0.50000000  0.32460000  1
  H  H195  1  0.13950000  0.50000000  0.27470000  1
  H  H196  1  0.58950000  0.00000000  0.32460000  1
  H  H197  1  0.63950000  0.00000000  0.27470000  1
  H  H198  1  0.58950000  0.50000000  0.82460000  1
  H  H199  1  0.63950000  0.50000000  0.77470000  1
  H  H200  1  0.17540000  0.08950000  0.00000000  1
  H  H201  1  0.22530000  0.13950000  0.00000000  1
  H  H202  1  0.17540000  0.58950000  0.50000000  1
  H  H203  1  0.22530000  0.63950000  0.50000000  1
  H  H204  1  0.67540000  0.08950000  0.50000000  1
  H  H205  1  0.72530000  0.13950000  0.50000000  1
  H  H206  1  0.67540000  0.58950000  0.00000000  1
  H  H207  1  0.72530000  0.63950000  0.00000000  1
  H  H208  1  0.17540000  0.91050000  0.00000000  1
  H  H209  1  0.22530000  0.86050000  0.00000000  1
  H  H210  1  0.17540000  0.41050000  0.50000000  1
  H  H211  1  0.22530000  0.36050000  0.50000000  1
  H  H212  1  0.67540000  0.91050000  0.50000000  1
  H  H213  1  0.72530000  0.86050000  0.50000000  1
  H  H214  1  0.67540000  0.41050000  0.00000000  1
  H  H215  1  0.72530000  0.36050000  0.00000000  1
  H  H216  1  0.82460000  0.91050000  0.00000000  1
  H  H217  1  0.77470000  0.86050000  0.00000000  1
  H  H218  1  0.82460000  0.41050000  0.50000000  1
  H  H219  1  0.77470000  0.36050000  0.50000000  1
  H  H220  1  0.32460000  0.91050000  0.50000000  1
  H  H221  1  0.27470000  0.86050000  0.50000000  1
  H  H222  1  0.32460000  0.41050000  0.00000000  1
  H  H223  1  0.27470000  0.36050000  0.00000000  1
  H  H224  1  0.82460000  0.08950000  0.00000000  1
  H  H225  1  0.77470000  0.13950000  0.00000000  1
  H  H226  1  0.82460000  0.58950000  0.50000000  1
  H  H227  1  0.77470000  0.63950000  0.50000000  1
  H  H228  1  0.32460000  0.08950000  0.50000000  1
  H  H229  1  0.27470000  0.13950000  0.50000000  1
  H  H230  1  0.32460000  0.58950000  0.00000000  1
  H  H231  1  0.27470000  0.63950000  0.00000000  1
  H  H232  1  0.00000000  0.17540000  0.08950000  1
  H  H233  1  0.00000000  0.22530000  0.13950000  1
  H  H234  1  0.00000000  0.67540000  0.58950000  1
  H  H235  1  0.00000000  0.72530000  0.63950000  1
  H  H236  1  0.50000000  0.17540000  0.58950000  1
  H  H237  1  0.50000000  0.22530000  0.63950000  1
  H  H238  1  0.50000000  0.67540000  0.08950000  1
  H  H239  1  0.50000000  0.72530000  0.13950000  1
  H  H240  1  0.00000000  0.17540000  0.91050000  1
  H  H241  1  0.00000000  0.22530000  0.86050000  1
  H  H242  1  0.00000000  0.67540000  0.41050000  1
  H  H243  1  0.00000000  0.72530000  0.36050000  1
  H  H244  1  0.50000000  0.17540000  0.41050000  1
  H  H245  1  0.50000000  0.22530000  0.36050000  1
  H  H246  1  0.50000000  0.67540000  0.91050000  1
  H  H247  1  0.50000000  0.72530000  0.86050000  1
  H  H248  1  0.00000000  0.82460000  0.91050000  1
  H  H249  1  0.00000000  0.77470000  0.86050000  1
  H  H250  1  0.00000000  0.32460000  0.41050000  1
  H  H251  1  0.00000000  0.27470000  0.36050000  1
  H  H252  1  0.50000000  0.82460000  0.41050000  1
  H  H253  1  0.50000000  0.77470000  0.36050000  1
  H  H254  1  0.50000000  0.32460000  0.91050000  1
  H  H255  1  0.50000000  0.27470000  0.86050000  1
  H  H256  1  0.00000000  0.82460000  0.08950000  1
  H  H257  1  0.00000000  0.77470000  0.13950000  1
  H  H258  1  0.00000000  0.32460000  0.58950000  1
  H  H259  1  0.00000000  0.27470000  0.63950000  1
  H  H260  1  0.50000000  0.82460000  0.58950000  1
  H  H261  1  0.50000000  0.77470000  0.63950000  1
  H  H262  1  0.50000000  0.32460000  0.08950000  1
  H  H263  1  0.50000000  0.27470000  0.13950000  1
  H  H264  1  0.00000000  0.08950000  0.82460000  1
  H  H265  1  0.00000000  0.13950000  0.77470000  1
  H  H266  1  0.00000000  0.58950000  0.32460000  1
  H  H267  1  0.00000000  0.63950000  0.27470000  1
  H  H268  1  0.50000000  0.08950000  0.32460000  1
  H  H269  1  0.50000000  0.13950000  0.27470000  1
  H  H270  1  0.50000000  0.58950000  0.82460000  1
  H  H271  1  0.50000000  0.63950000  0.77470000  1
  H  H272  1  0.00000000  0.91050000  0.82460000  1
  H  H273  1  0.00000000  0.86050000  0.77470000  1
  H  H274  1  0.00000000  0.41050000  0.32460000  1
  H  H275  1  0.00000000  0.36050000  0.27470000  1
  H  H276  1  0.50000000  0.91050000  0.32460000  1
  H  H277  1  0.50000000  0.86050000  0.27470000  1
  H  H278  1  0.50000000  0.41050000  0.82460000  1
  H  H279  1  0.50000000  0.36050000  0.77470000  1
  H  H280  1  0.00000000  0.91050000  0.17540000  1
  H  H281  1  0.00000000  0.86050000  0.22530000  1
  H  H282  1  0.00000000  0.41050000  0.67540000  1
  H  H283  1  0.00000000  0.36050000  0.72530000  1
  H  H284  1  0.50000000  0.91050000  0.67540000  1
  H  H285  1  0.50000000  0.86050000  0.72530000  1
  H  H286  1  0.50000000  0.41050000  0.17540000  1
  H  H287  1  0.50000000  0.36050000  0.22530000  1
  H  H288  1  0.00000000  0.08950000  0.17540000  1
  H  H289  1  0.00000000  0.13950000  0.22530000  1
  H  H290  1  0.00000000  0.58950000  0.67540000  1
  H  H291  1  0.00000000  0.63950000  0.72530000  1
  H  H292  1  0.50000000  0.08950000  0.67540000  1
  H  H293  1  0.50000000  0.13950000  0.72530000  1
  H  H294  1  0.50000000  0.58950000  0.17540000  1
  H  H295  1  0.50000000  0.63950000  0.22530000  1
  H  H296  1  0.08950000  0.17540000  0.00000000  1
  H  H297  1  0.13950000  0.22530000  0.00000000  1
  H  H298  1  0.08950000  0.67540000  0.50000000  1
  H  H299  1  0.13950000  0.72530000  0.50000000  1
  H  H300  1  0.58950000  0.17540000  0.50000000  1
  H  H301  1  0.63950000  0.22530000  0.50000000  1
  H  H302  1  0.58950000  0.67540000  0.00000000  1
  H  H303  1  0.63950000  0.72530000  0.00000000  1
  H  H304  1  0.91050000  0.17540000  0.00000000  1
  H  H305  1  0.86050000  0.22530000  0.00000000  1
  H  H306  1  0.91050000  0.67540000  0.50000000  1
  H  H307  1  0.86050000  0.72530000  0.50000000  1
  H  H308  1  0.41050000  0.17540000  0.50000000  1
  H  H309  1  0.36050000  0.22530000  0.50000000  1
  H  H310  1  0.41050000  0.67540000  0.00000000  1
  H  H311  1  0.36050000  0.72530000  0.00000000  1
  H  H312  1  0.91050000  0.82460000  0.00000000  1
  H  H313  1  0.86050000  0.77470000  0.00000000  1
  H  H314  1  0.91050000  0.32460000  0.50000000  1
  H  H315  1  0.86050000  0.27470000  0.50000000  1
  H  H316  1  0.41050000  0.82460000  0.50000000  1
  H  H317  1  0.36050000  0.77470000  0.50000000  1
  H  H318  1  0.41050000  0.32460000  0.00000000  1
  H  H319  1  0.36050000  0.27470000  0.00000000  1
  H  H320  1  0.08950000  0.82460000  0.00000000  1
  H  H321  1  0.13950000  0.77470000  0.00000000  1
  H  H322  1  0.08950000  0.32460000  0.50000000  1
  H  H323  1  0.13950000  0.27470000  0.50000000  1
  H  H324  1  0.58950000  0.82460000  0.50000000  1
  H  H325  1  0.63950000  0.77470000  0.50000000  1
  H  H326  1  0.58950000  0.32460000  0.00000000  1
  H  H327  1  0.63950000  0.27470000  0.00000000  1
  H  H328  1  0.17540000  0.00000000  0.91050000  1
  H  H329  1  0.22530000  0.00000000  0.86050000  1
  H  H330  1  0.17540000  0.50000000  0.41050000  1
  H  H331  1  0.22530000  0.50000000  0.36050000  1
  H  H332  1  0.67540000  0.00000000  0.41050000  1
  H  H333  1  0.72530000  0.00000000  0.36050000  1
  H  H334  1  0.67540000  0.50000000  0.91050000  1
  H  H335  1  0.72530000  0.50000000  0.86050000  1
  H  H336  1  0.17540000  0.00000000  0.08950000  1
  H  H337  1  0.22530000  0.00000000  0.13950000  1
  H  H338  1  0.17540000  0.50000000  0.58950000  1
  H  H339  1  0.22530000  0.50000000  0.63950000  1
  H  H340  1  0.67540000  0.00000000  0.58950000  1
  H  H341  1  0.72530000  0.00000000  0.63950000  1
  H  H342  1  0.67540000  0.50000000  0.08950000  1
  H  H343  1  0.72530000  0.50000000  0.13950000  1
  H  H344  1  0.82460000  0.00000000  0.08950000  1
  H  H345  1  0.77470000  0.00000000  0.13950000  1
  H  H346  1  0.82460000  0.50000000  0.58950000  1
  H  H347  1  0.77470000  0.50000000  0.63950000  1
  H  H348  1  0.32460000  0.00000000  0.58950000  1
  H  H349  1  0.27470000  0.00000000  0.63950000  1
  H  H350  1  0.32460000  0.50000000  0.08950000  1
  H  H351  1  0.27470000  0.50000000  0.13950000  1
  H  H352  1  0.82460000  0.00000000  0.91050000  1
  H  H353  1  0.77470000  0.00000000  0.86050000  1
  H  H354  1  0.82460000  0.50000000  0.41050000  1
  H  H355  1  0.77470000  0.50000000  0.36050000  1
  H  H356  1  0.32460000  0.00000000  0.41050000  1
  H  H357  1  0.27470000  0.00000000  0.36050000  1
  H  H358  1  0.32460000  0.50000000  0.91050000  1
  H  H359  1  0.27470000  0.50000000  0.86050000  1
  H  H360  1  0.77730000  0.56655000  0.27730000  1
  H  H361  1  0.27730000  0.56655000  0.77730000  1
  H  H362  1  0.22270000  0.43345000  0.72270000  1
  H  H363  1  0.72270000  0.43345000  0.22270000  1
  H  H364  1  0.77730000  0.56655000  0.72270000  1
  H  H365  1  0.27730000  0.56655000  0.22270000  1
  H  H366  1  0.22270000  0.43345000  0.27730000  1
  H  H367  1  0.72270000  0.43345000  0.77730000  1
  H  H368  1  0.56655000  0.77730000  0.27730000  1
  H  H369  1  0.56655000  0.27730000  0.77730000  1
  H  H370  1  0.43345000  0.22270000  0.72270000  1
  H  H371  1  0.43345000  0.72270000  0.22270000  1
  H  H372  1  0.43345000  0.22270000  0.27730000  1
  H  H373  1  0.43345000  0.72270000  0.77730000  1
  H  H374  1  0.56655000  0.77730000  0.72270000  1
  H  H375  1  0.56655000  0.27730000  0.22270000  1
  H  H376  1  0.77730000  0.72270000  0.43345000  1
  H  H377  1  0.27730000  0.22270000  0.43345000  1
  H  H378  1  0.22270000  0.27730000  0.56655000  1
  H  H379  1  0.72270000  0.77730000  0.56655000  1
  H  H380  1  0.22270000  0.72270000  0.56655000  1
  H  H381  1  0.72270000  0.22270000  0.56655000  1
  H  H382  1  0.77730000  0.27730000  0.43345000  1
  H  H383  1  0.27730000  0.77730000  0.43345000  1
  H  H384  1  0.06655000  0.77730000  0.77730000  1
  H  H385  1  0.93345000  0.72270000  0.72270000  1
  H  H386  1  0.93345000  0.22270000  0.77730000  1
  H  H387  1  0.06655000  0.27730000  0.72270000  1
  H  H388  1  0.06655000  0.27730000  0.27730000  1
  H  H389  1  0.93345000  0.22270000  0.22270000  1
  H  H390  1  0.93345000  0.77730000  0.22270000  1
  H  H391  1  0.06655000  0.72270000  0.27730000  1
  H  H392  1  0.72270000  0.93345000  0.72270000  1
  H  H393  1  0.77730000  0.06655000  0.77730000  1
  H  H394  1  0.27730000  0.93345000  0.27730000  1
  H  H395  1  0.22270000  0.06655000  0.22270000  1
  H  H396  1  0.22270000  0.06655000  0.77730000  1
  H  H397  1  0.27730000  0.93345000  0.72270000  1
  H  H398  1  0.72270000  0.93345000  0.27730000  1
  H  H399  1  0.77730000  0.06655000  0.22270000  1
  H  H400  1  0.77730000  0.22270000  0.93345000  1
  H  H401  1  0.72270000  0.27730000  0.06655000  1
  H  H402  1  0.27730000  0.72270000  0.93345000  1
  H  H403  1  0.22270000  0.77730000  0.06655000  1
  H  H404  1  0.72270000  0.72270000  0.93345000  1
  H  H405  1  0.77730000  0.77730000  0.06655000  1
  H  H406  1  0.27730000  0.27730000  0.93345000  1
  H  H407  1  0.22270000  0.22270000  0.06655000  1
  C  C408  1  0.20380000  0.57110000  0.74080000  1
  C  C409  1  0.70380000  0.07110000  0.74080000  1
  C  C410  1  0.79620000  0.92890000  0.24080000  1
  C  C411  1  0.79620000  0.42890000  0.74080000  1
  C  C412  1  0.29620000  0.42890000  0.24080000  1
  C  C413  1  0.29620000  0.07110000  0.25920000  1
  C  C414  1  0.74080000  0.70380000  0.07110000  1
  C  C415  1  0.24080000  0.79620000  0.92890000  1
  C  C416  1  0.24080000  0.29620000  0.42890000  1
  C  C417  1  0.74080000  0.79620000  0.42890000  1
  C  C418  1  0.74080000  0.29620000  0.92890000  1
  C  C419  1  0.75920000  0.29620000  0.57110000  1
  C  C420  1  0.07110000  0.74080000  0.70380000  1
  C  C421  1  0.57110000  0.24080000  0.70380000  1
  C  C422  1  0.57110000  0.74080000  0.20380000  1
  C  C423  1  0.92890000  0.74080000  0.29620000  1
  C  C424  1  0.07110000  0.20380000  0.75920000  1
  C  C425  1  0.57110000  0.20380000  0.25920000  1
  C  C426  1  0.57110000  0.70380000  0.75920000  1
  C  C427  1  0.92890000  0.29620000  0.25920000  1
  C  C428  1  0.42890000  0.79620000  0.25920000  1
  C  C429  1  0.42890000  0.29620000  0.75920000  1
  C  C430  1  0.20380000  0.24080000  0.92890000  1
  C  C431  1  0.70380000  0.24080000  0.42890000  1
  C  C432  1  0.24080000  0.57110000  0.29620000  1
  C  C433  1  0.25920000  0.07110000  0.70380000  1
  C  C434  1  0.75920000  0.42890000  0.29620000  1
  C  C435  1  0.79620000  0.92890000  0.75920000  1
  C  C436  1  0.29620000  0.42890000  0.75920000  1
  C  C437  1  0.70380000  0.07110000  0.25920000  1
  C  C438  1  0.70380000  0.57110000  0.75920000  1
  C  C439  1  0.20380000  0.92890000  0.24080000  1
  C  C440  1  0.75920000  0.79620000  0.92890000  1
  C  C441  1  0.75920000  0.20380000  0.07110000  1
  C  C442  1  0.75920000  0.70380000  0.57110000  1
  C  C443  1  0.25920000  0.20380000  0.57110000  1
  C  C444  1  0.25920000  0.70380000  0.07110000  1
  C  C445  1  0.24080000  0.70380000  0.42890000  1
  C  C446  1  0.92890000  0.75920000  0.79620000  1
  C  C447  1  0.07110000  0.75920000  0.20380000  1
  C  C448  1  0.92890000  0.29620000  0.74080000  1
  C  C449  1  0.42890000  0.79620000  0.74080000  1
  C  C450  1  0.42890000  0.29620000  0.24080000  1
  C  C451  1  0.07110000  0.20380000  0.24080000  1
  C  C452  1  0.29620000  0.75920000  0.57110000  1
  C  C453  1  0.29620000  0.25920000  0.07110000  1
  C  C454  1  0.24080000  0.92890000  0.79620000  1
  C  C455  1  0.74080000  0.57110000  0.20380000  1
  C  C456  1  0.11708000  0.00000000  0.16803000  1
  C  C457  1  0.14686000  0.00000000  0.19772000  1
  C  C458  1  0.11708000  0.50000000  0.66803000  1
  C  C459  1  0.14686000  0.50000000  0.69772000  1
  C  C460  1  0.61708000  0.00000000  0.66803000  1
  C  C461  1  0.64686000  0.00000000  0.69772000  1
  C  C462  1  0.61708000  0.50000000  0.16803000  1
  C  C463  1  0.64686000  0.50000000  0.19772000  1
  C  C464  1  0.88292000  0.00000000  0.16803000  1
  C  C465  1  0.85314000  0.00000000  0.19772000  1
  C  C466  1  0.88292000  0.50000000  0.66803000  1
  C  C467  1  0.85314000  0.50000000  0.69772000  1
  C  C468  1  0.38292000  0.00000000  0.66803000  1
  C  C469  1  0.35314000  0.00000000  0.69772000  1
  C  C470  1  0.38292000  0.50000000  0.16803000  1
  C  C471  1  0.35314000  0.50000000  0.19772000  1
  C  C472  1  0.88292000  0.00000000  0.83197000  1
  C  C473  1  0.85314000  0.00000000  0.80228000  1
  C  C474  1  0.88292000  0.50000000  0.33197000  1
  C  C475  1  0.85314000  0.50000000  0.30228000  1
  C  C476  1  0.38292000  0.00000000  0.33197000  1
  C  C477  1  0.35314000  0.00000000  0.30228000  1
  C  C478  1  0.38292000  0.50000000  0.83197000  1
  C  C479  1  0.35314000  0.50000000  0.80228000  1
  C  C480  1  0.11708000  0.00000000  0.83197000  1
  C  C481  1  0.14686000  0.00000000  0.80228000  1
  C  C482  1  0.11708000  0.50000000  0.33197000  1
  C  C483  1  0.14686000  0.50000000  0.30228000  1
  C  C484  1  0.61708000  0.00000000  0.33197000  1
  C  C485  1  0.64686000  0.00000000  0.30228000  1
  C  C486  1  0.61708000  0.50000000  0.83197000  1
  C  C487  1  0.64686000  0.50000000  0.80228000  1
  C  C488  1  0.16803000  0.11708000  0.00000000  1
  C  C489  1  0.19772000  0.14686000  0.00000000  1
  C  C490  1  0.16803000  0.61708000  0.50000000  1
  C  C491  1  0.19772000  0.64686000  0.50000000  1
  C  C492  1  0.66803000  0.11708000  0.50000000  1
  C  C493  1  0.69772000  0.14686000  0.50000000  1
  C  C494  1  0.66803000  0.61708000  0.00000000  1
  C  C495  1  0.69772000  0.64686000  0.00000000  1
  C  C496  1  0.16803000  0.88292000  0.00000000  1
  C  C497  1  0.19772000  0.85314000  0.00000000  1
  C  C498  1  0.16803000  0.38292000  0.50000000  1
  C  C499  1  0.19772000  0.35314000  0.50000000  1
  C  C500  1  0.66803000  0.88292000  0.50000000  1
  C  C501  1  0.69772000  0.85314000  0.50000000  1
  C  C502  1  0.66803000  0.38292000  0.00000000  1
  C  C503  1  0.69772000  0.35314000  0.00000000  1
  C  C504  1  0.83197000  0.88292000  0.00000000  1
  C  C505  1  0.80228000  0.85314000  0.00000000  1
  C  C506  1  0.83197000  0.38292000  0.50000000  1
  C  C507  1  0.80228000  0.35314000  0.50000000  1
  C  C508  1  0.33197000  0.88292000  0.50000000  1
  C  C509  1  0.30228000  0.85314000  0.50000000  1
  C  C510  1  0.33197000  0.38292000  0.00000000  1
  C  C511  1  0.30228000  0.35314000  0.00000000  1
  C  C512  1  0.83197000  0.11708000  0.00000000  1
  C  C513  1  0.80228000  0.14686000  0.00000000  1
  C  C514  1  0.83197000  0.61708000  0.50000000  1
  C  C515  1  0.80228000  0.64686000  0.50000000  1
  C  C516  1  0.33197000  0.11708000  0.50000000  1
  C  C517  1  0.30228000  0.14686000  0.50000000  1
  C  C518  1  0.33197000  0.61708000  0.00000000  1
  C  C519  1  0.30228000  0.64686000  0.00000000  1
  C  C520  1  0.00000000  0.16803000  0.11708000  1
  C  C521  1  0.00000000  0.19772000  0.14686000  1
  C  C522  1  0.00000000  0.66803000  0.61708000  1
  C  C523  1  0.00000000  0.69772000  0.64686000  1
  C  C524  1  0.50000000  0.16803000  0.61708000  1
  C  C525  1  0.50000000  0.19772000  0.64686000  1
  C  C526  1  0.50000000  0.66803000  0.11708000  1
  C  C527  1  0.50000000  0.69772000  0.14686000  1
  C  C528  1  0.00000000  0.16803000  0.88292000  1
  C  C529  1  0.00000000  0.19772000  0.85314000  1
  C  C530  1  0.00000000  0.66803000  0.38292000  1
  C  C531  1  0.00000000  0.69772000  0.35314000  1
  C  C532  1  0.50000000  0.16803000  0.38292000  1
  C  C533  1  0.50000000  0.19772000  0.35314000  1
  C  C534  1  0.50000000  0.66803000  0.88292000  1
  C  C535  1  0.50000000  0.69772000  0.85314000  1
  C  C536  1  0.00000000  0.83197000  0.88292000  1
  C  C537  1  0.00000000  0.80228000  0.85314000  1
  C  C538  1  0.00000000  0.33197000  0.38292000  1
  C  C539  1  0.00000000  0.30228000  0.35314000  1
  C  C540  1  0.50000000  0.83197000  0.38292000  1
  C  C541  1  0.50000000  0.80228000  0.35314000  1
  C  C542  1  0.50000000  0.33197000  0.88292000  1
  C  C543  1  0.50000000  0.30228000  0.85314000  1
  C  C544  1  0.00000000  0.83197000  0.11708000  1
  C  C545  1  0.00000000  0.80228000  0.14686000  1
  C  C546  1  0.00000000  0.33197000  0.61708000  1
  C  C547  1  0.00000000  0.30228000  0.64686000  1
  C  C548  1  0.50000000  0.83197000  0.61708000  1
  C  C549  1  0.50000000  0.80228000  0.64686000  1
  C  C550  1  0.50000000  0.33197000  0.11708000  1
  C  C551  1  0.50000000  0.30228000  0.14686000  1
  C  C552  1  0.00000000  0.11708000  0.83197000  1
  C  C553  1  0.00000000  0.14686000  0.80228000  1
  C  C554  1  0.00000000  0.61708000  0.33197000  1
  C  C555  1  0.00000000  0.64686000  0.30228000  1
  C  C556  1  0.50000000  0.11708000  0.33197000  1
  C  C557  1  0.50000000  0.14686000  0.30228000  1
  C  C558  1  0.50000000  0.61708000  0.83197000  1
  C  C559  1  0.50000000  0.64686000  0.80228000  1
  C  C560  1  0.00000000  0.88292000  0.83197000  1
  C  C561  1  0.00000000  0.85314000  0.80228000  1
  C  C562  1  0.00000000  0.38292000  0.33197000  1
  C  C563  1  0.00000000  0.35314000  0.30228000  1
  C  C564  1  0.50000000  0.88292000  0.33197000  1
  C  C565  1  0.50000000  0.85314000  0.30228000  1
  C  C566  1  0.50000000  0.38292000  0.83197000  1
  C  C567  1  0.50000000  0.35314000  0.80228000  1
  C  C568  1  0.00000000  0.88292000  0.16803000  1
  C  C569  1  0.00000000  0.85314000  0.19772000  1
  C  C570  1  0.00000000  0.38292000  0.66803000  1
  C  C571  1  0.00000000  0.35314000  0.69772000  1
  C  C572  1  0.50000000  0.88292000  0.66803000  1
  C  C573  1  0.50000000  0.85314000  0.69772000  1
  C  C574  1  0.50000000  0.38292000  0.16803000  1
  C  C575  1  0.50000000  0.35314000  0.19772000  1
  C  C576  1  0.00000000  0.11708000  0.16803000  1
  C  C577  1  0.00000000  0.14686000  0.19772000  1
  C  C578  1  0.00000000  0.61708000  0.66803000  1
  C  C579  1  0.00000000  0.64686000  0.69772000  1
  C  C580  1  0.50000000  0.11708000  0.66803000  1
  C  C581  1  0.50000000  0.14686000  0.69772000  1
  C  C582  1  0.50000000  0.61708000  0.16803000  1
  C  C583  1  0.50000000  0.64686000  0.19772000  1
  C  C584  1  0.11708000  0.16803000  0.00000000  1
  C  C585  1  0.14686000  0.19772000  0.00000000  1
  C  C586  1  0.11708000  0.66803000  0.50000000  1
  C  C587  1  0.14686000  0.69772000  0.50000000  1
  C  C588  1  0.61708000  0.16803000  0.50000000  1
  C  C589  1  0.64686000  0.19772000  0.50000000  1
  C  C590  1  0.61708000  0.66803000  0.00000000  1
  C  C591  1  0.64686000  0.69772000  0.00000000  1
  C  C592  1  0.88292000  0.16803000  0.00000000  1
  C  C593  1  0.85314000  0.19772000  0.00000000  1
  C  C594  1  0.88292000  0.66803000  0.50000000  1
  C  C595  1  0.85314000  0.69772000  0.50000000  1
  C  C596  1  0.38292000  0.16803000  0.50000000  1
  C  C597  1  0.35314000  0.19772000  0.50000000  1
  C  C598  1  0.38292000  0.66803000  0.00000000  1
  C  C599  1  0.35314000  0.69772000  0.00000000  1
  C  C600  1  0.88292000  0.83197000  0.00000000  1
  C  C601  1  0.85314000  0.80228000  0.00000000  1
  C  C602  1  0.88292000  0.33197000  0.50000000  1
  C  C603  1  0.85314000  0.30228000  0.50000000  1
  C  C604  1  0.38292000  0.83197000  0.50000000  1
  C  C605  1  0.35314000  0.80228000  0.50000000  1
  C  C606  1  0.38292000  0.33197000  0.00000000  1
  C  C607  1  0.35314000  0.30228000  0.00000000  1
  C  C608  1  0.11708000  0.83197000  0.00000000  1
  C  C609  1  0.14686000  0.80228000  0.00000000  1
  C  C610  1  0.11708000  0.33197000  0.50000000  1
  C  C611  1  0.14686000  0.30228000  0.50000000  1
  C  C612  1  0.61708000  0.83197000  0.50000000  1
  C  C613  1  0.64686000  0.80228000  0.50000000  1
  C  C614  1  0.61708000  0.33197000  0.00000000  1
  C  C615  1  0.64686000  0.30228000  0.00000000  1
  C  C616  1  0.16803000  0.00000000  0.88292000  1
  C  C617  1  0.19772000  0.00000000  0.85314000  1
  C  C618  1  0.16803000  0.50000000  0.38292000  1
  C  C619  1  0.19772000  0.50000000  0.35314000  1
  C  C620  1  0.66803000  0.00000000  0.38292000  1
  C  C621  1  0.69772000  0.00000000  0.35314000  1
  C  C622  1  0.66803000  0.50000000  0.88292000  1
  C  C623  1  0.69772000  0.50000000  0.85314000  1
  C  C624  1  0.16803000  0.00000000  0.11708000  1
  C  C625  1  0.19772000  0.00000000  0.14686000  1
  C  C626  1  0.16803000  0.50000000  0.61708000  1
  C  C627  1  0.19772000  0.50000000  0.64686000  1
  C  C628  1  0.66803000  0.00000000  0.61708000  1
  C  C629  1  0.69772000  0.00000000  0.64686000  1
  C  C630  1  0.66803000  0.50000000  0.11708000  1
  C  C631  1  0.69772000  0.50000000  0.14686000  1
  C  C632  1  0.83197000  0.00000000  0.11708000  1
  C  C633  1  0.80228000  0.00000000  0.14686000  1
  C  C634  1  0.83197000  0.50000000  0.61708000  1
  C  C635  1  0.80228000  0.50000000  0.64686000  1
  C  C636  1  0.33197000  0.00000000  0.61708000  1
  C  C637  1  0.30228000  0.00000000  0.64686000  1
  C  C638  1  0.33197000  0.50000000  0.11708000  1
  C  C639  1  0.30228000  0.50000000  0.14686000  1
  C  C640  1  0.83197000  0.00000000  0.88292000  1
  C  C641  1  0.80228000  0.00000000  0.85314000  1
  C  C642  1  0.83197000  0.50000000  0.38292000  1
  C  C643  1  0.80228000  0.50000000  0.35314000  1
  C  C644  1  0.33197000  0.00000000  0.38292000  1
  C  C645  1  0.30228000  0.00000000  0.35314000  1
  C  C646  1  0.33197000  0.50000000  0.88292000  1
  C  C647  1  0.30228000  0.50000000  0.85314000  1
  C  C648  1  0.09536000  0.00000000  0.09536000  1
  C  C649  1  0.12797000  0.00000000  0.12797000  1
  C  C650  1  0.18697000  0.00000000  0.18697000  1
  C  C651  1  0.22036000  0.00000000  0.22036000  1
  C  C652  1  0.09536000  0.50000000  0.59536000  1
  C  C653  1  0.12797000  0.50000000  0.62797000  1
  C  C654  1  0.18697000  0.50000000  0.68697000  1
  C  C655  1  0.22036000  0.50000000  0.72036000  1
  C  C656  1  0.59536000  0.00000000  0.59536000  1
  C  C657  1  0.62797000  0.00000000  0.62797000  1
  C  C658  1  0.68697000  0.00000000  0.68697000  1
  C  C659  1  0.72036000  0.00000000  0.72036000  1
  C  C660  1  0.59536000  0.50000000  0.09536000  1
  C  C661  1  0.62797000  0.50000000  0.12797000  1
  C  C662  1  0.68697000  0.50000000  0.18697000  1
  C  C663  1  0.72036000  0.50000000  0.22036000  1
  C  C664  1  0.90464000  0.00000000  0.09536000  1
  C  C665  1  0.87203000  0.00000000  0.12797000  1
  C  C666  1  0.81303000  0.00000000  0.18697000  1
  C  C667  1  0.77964000  0.00000000  0.22036000  1
  C  C668  1  0.90464000  0.50000000  0.59536000  1
  C  C669  1  0.87203000  0.50000000  0.62797000  1
  C  C670  1  0.81303000  0.50000000  0.68697000  1
  C  C671  1  0.77964000  0.50000000  0.72036000  1
  C  C672  1  0.40464000  0.00000000  0.59536000  1
  C  C673  1  0.37203000  0.00000000  0.62797000  1
  C  C674  1  0.31303000  0.00000000  0.68697000  1
  C  C675  1  0.27964000  0.00000000  0.72036000  1
  C  C676  1  0.40464000  0.50000000  0.09536000  1
  C  C677  1  0.37203000  0.50000000  0.12797000  1
  C  C678  1  0.31303000  0.50000000  0.18697000  1
  C  C679  1  0.27964000  0.50000000  0.22036000  1
  C  C680  1  0.90464000  0.00000000  0.90464000  1
  C  C681  1  0.87203000  0.00000000  0.87203000  1
  C  C682  1  0.81303000  0.00000000  0.81303000  1
  C  C683  1  0.77964000  0.00000000  0.77964000  1
  C  C684  1  0.90464000  0.50000000  0.40464000  1
  C  C685  1  0.87203000  0.50000000  0.37203000  1
  C  C686  1  0.81303000  0.50000000  0.31303000  1
  C  C687  1  0.77964000  0.50000000  0.27964000  1
  C  C688  1  0.40464000  0.00000000  0.40464000  1
  C  C689  1  0.37203000  0.00000000  0.37203000  1
  C  C690  1  0.31303000  0.00000000  0.31303000  1
  C  C691  1  0.27964000  0.00000000  0.27964000  1
  C  C692  1  0.40464000  0.50000000  0.90464000  1
  C  C693  1  0.37203000  0.50000000  0.87203000  1
  C  C694  1  0.31303000  0.50000000  0.81303000  1
  C  C695  1  0.27964000  0.50000000  0.77964000  1
  C  C696  1  0.09536000  0.00000000  0.90464000  1
  C  C697  1  0.12797000  0.00000000  0.87203000  1
  C  C698  1  0.18697000  0.00000000  0.81303000  1
  C  C699  1  0.22036000  0.00000000  0.77964000  1
  C  C700  1  0.09536000  0.50000000  0.40464000  1
  C  C701  1  0.12797000  0.50000000  0.37203000  1
  C  C702  1  0.18697000  0.50000000  0.31303000  1
  C  C703  1  0.22036000  0.50000000  0.27964000  1
  C  C704  1  0.59536000  0.00000000  0.40464000  1
  C  C705  1  0.62797000  0.00000000  0.37203000  1
  C  C706  1  0.68697000  0.00000000  0.31303000  1
  C  C707  1  0.72036000  0.00000000  0.27964000  1
  C  C708  1  0.59536000  0.50000000  0.90464000  1
  C  C709  1  0.62797000  0.50000000  0.87203000  1
  C  C710  1  0.68697000  0.50000000  0.81303000  1
  C  C711  1  0.72036000  0.50000000  0.77964000  1
  C  C712  1  0.09536000  0.09536000  0.00000000  1
  C  C713  1  0.12797000  0.12797000  0.00000000  1
  C  C714  1  0.18697000  0.18697000  0.00000000  1
  C  C715  1  0.22036000  0.22036000  0.00000000  1
  C  C716  1  0.09536000  0.59536000  0.50000000  1
  C  C717  1  0.12797000  0.62797000  0.50000000  1
  C  C718  1  0.18697000  0.68697000  0.50000000  1
  C  C719  1  0.22036000  0.72036000  0.50000000  1
  C  C720  1  0.59536000  0.09536000  0.50000000  1
  C  C721  1  0.62797000  0.12797000  0.50000000  1
  C  C722  1  0.68697000  0.18697000  0.50000000  1
  C  C723  1  0.72036000  0.22036000  0.50000000  1
  C  C724  1  0.59536000  0.59536000  0.00000000  1
  C  C725  1  0.62797000  0.62797000  0.00000000  1
  C  C726  1  0.68697000  0.68697000  0.00000000  1
  C  C727  1  0.72036000  0.72036000  0.00000000  1
  C  C728  1  0.09536000  0.90464000  0.00000000  1
  C  C729  1  0.12797000  0.87203000  0.00000000  1
  C  C730  1  0.18697000  0.81303000  0.00000000  1
  C  C731  1  0.22036000  0.77964000  0.00000000  1
  C  C732  1  0.09536000  0.40464000  0.50000000  1
  C  C733  1  0.12797000  0.37203000  0.50000000  1
  C  C734  1  0.18697000  0.31303000  0.50000000  1
  C  C735  1  0.22036000  0.27964000  0.50000000  1
  C  C736  1  0.59536000  0.90464000  0.50000000  1
  C  C737  1  0.62797000  0.87203000  0.50000000  1
  C  C738  1  0.68697000  0.81303000  0.50000000  1
  C  C739  1  0.72036000  0.77964000  0.50000000  1
  C  C740  1  0.59536000  0.40464000  0.00000000  1
  C  C741  1  0.62797000  0.37203000  0.00000000  1
  C  C742  1  0.68697000  0.31303000  0.00000000  1
  C  C743  1  0.72036000  0.27964000  0.00000000  1
  C  C744  1  0.90464000  0.90464000  0.00000000  1
  C  C745  1  0.87203000  0.87203000  0.00000000  1
  C  C746  1  0.81303000  0.81303000  0.00000000  1
  C  C747  1  0.77964000  0.77964000  0.00000000  1
  C  C748  1  0.90464000  0.40464000  0.50000000  1
  C  C749  1  0.87203000  0.37203000  0.50000000  1
  C  C750  1  0.81303000  0.31303000  0.50000000  1
  C  C751  1  0.77964000  0.27964000  0.50000000  1
  C  C752  1  0.40464000  0.90464000  0.50000000  1
  C  C753  1  0.37203000  0.87203000  0.50000000  1
  C  C754  1  0.31303000  0.81303000  0.50000000  1
  C  C755  1  0.27964000  0.77964000  0.50000000  1
  C  C756  1  0.40464000  0.40464000  0.00000000  1
  C  C757  1  0.37203000  0.37203000  0.00000000  1
  C  C758  1  0.31303000  0.31303000  0.00000000  1
  C  C759  1  0.27964000  0.27964000  0.00000000  1
  C  C760  1  0.90464000  0.09536000  0.00000000  1
  C  C761  1  0.87203000  0.12797000  0.00000000  1
  C  C762  1  0.81303000  0.18697000  0.00000000  1
  C  C763  1  0.77964000  0.22036000  0.00000000  1
  C  C764  1  0.90464000  0.59536000  0.50000000  1
  C  C765  1  0.87203000  0.62797000  0.50000000  1
  C  C766  1  0.81303000  0.68697000  0.50000000  1
  C  C767  1  0.77964000  0.72036000  0.50000000  1
  C  C768  1  0.40464000  0.09536000  0.50000000  1
  C  C769  1  0.37203000  0.12797000  0.50000000  1
  C  C770  1  0.31303000  0.18697000  0.50000000  1
  C  C771  1  0.27964000  0.22036000  0.50000000  1
  C  C772  1  0.40464000  0.59536000  0.00000000  1
  C  C773  1  0.37203000  0.62797000  0.00000000  1
  C  C774  1  0.31303000  0.68697000  0.00000000  1
  C  C775  1  0.27964000  0.72036000  0.00000000  1
  C  C776  1  0.00000000  0.09536000  0.09536000  1
  C  C777  1  0.00000000  0.12797000  0.12797000  1
  C  C778  1  0.00000000  0.18697000  0.18697000  1
  C  C779  1  0.00000000  0.22036000  0.22036000  1
  C  C780  1  0.00000000  0.59536000  0.59536000  1
  C  C781  1  0.00000000  0.62797000  0.62797000  1
  C  C782  1  0.00000000  0.68697000  0.68697000  1
  C  C783  1  0.00000000  0.72036000  0.72036000  1
  C  C784  1  0.50000000  0.09536000  0.59536000  1
  C  C785  1  0.50000000  0.12797000  0.62797000  1
  C  C786  1  0.50000000  0.18697000  0.68697000  1
  C  C787  1  0.50000000  0.22036000  0.72036000  1
  C  C788  1  0.50000000  0.59536000  0.09536000  1
  C  C789  1  0.50000000  0.62797000  0.12797000  1
  C  C790  1  0.50000000  0.68697000  0.18697000  1
  C  C791  1  0.50000000  0.72036000  0.22036000  1
  C  C792  1  0.00000000  0.09536000  0.90464000  1
  C  C793  1  0.00000000  0.12797000  0.87203000  1
  C  C794  1  0.00000000  0.18697000  0.81303000  1
  C  C795  1  0.00000000  0.22036000  0.77964000  1
  C  C796  1  0.00000000  0.59536000  0.40464000  1
  C  C797  1  0.00000000  0.62797000  0.37203000  1
  C  C798  1  0.00000000  0.68697000  0.31303000  1
  C  C799  1  0.00000000  0.72036000  0.27964000  1
  C  C800  1  0.50000000  0.09536000  0.40464000  1
  C  C801  1  0.50000000  0.12797000  0.37203000  1
  C  C802  1  0.50000000  0.18697000  0.31303000  1
  C  C803  1  0.50000000  0.22036000  0.27964000  1
  C  C804  1  0.50000000  0.59536000  0.90464000  1
  C  C805  1  0.50000000  0.62797000  0.87203000  1
  C  C806  1  0.50000000  0.68697000  0.81303000  1
  C  C807  1  0.50000000  0.72036000  0.77964000  1
  C  C808  1  0.00000000  0.90464000  0.90464000  1
  C  C809  1  0.00000000  0.87203000  0.87203000  1
  C  C810  1  0.00000000  0.81303000  0.81303000  1
  C  C811  1  0.00000000  0.77964000  0.77964000  1
  C  C812  1  0.00000000  0.40464000  0.40464000  1
  C  C813  1  0.00000000  0.37203000  0.37203000  1
  C  C814  1  0.00000000  0.31303000  0.31303000  1
  C  C815  1  0.00000000  0.27964000  0.27964000  1
  C  C816  1  0.50000000  0.90464000  0.40464000  1
  C  C817  1  0.50000000  0.87203000  0.37203000  1
  C  C818  1  0.50000000  0.81303000  0.31303000  1
  C  C819  1  0.50000000  0.77964000  0.27964000  1
  C  C820  1  0.50000000  0.40464000  0.90464000  1
  C  C821  1  0.50000000  0.37203000  0.87203000  1
  C  C822  1  0.50000000  0.31303000  0.81303000  1
  C  C823  1  0.50000000  0.27964000  0.77964000  1
  C  C824  1  0.00000000  0.90464000  0.09536000  1
  C  C825  1  0.00000000  0.87203000  0.12797000  1
  C  C826  1  0.00000000  0.81303000  0.18697000  1
  C  C827  1  0.00000000  0.77964000  0.22036000  1
  C  C828  1  0.00000000  0.40464000  0.59536000  1
  C  C829  1  0.00000000  0.37203000  0.62797000  1
  C  C830  1  0.00000000  0.31303000  0.68697000  1
  C  C831  1  0.00000000  0.27964000  0.72036000  1
  C  C832  1  0.50000000  0.90464000  0.59536000  1
  C  C833  1  0.50000000  0.87203000  0.62797000  1
  C  C834  1  0.50000000  0.81303000  0.68697000  1
  C  C835  1  0.50000000  0.77964000  0.72036000  1
  C  C836  1  0.50000000  0.40464000  0.09536000  1
  C  C837  1  0.50000000  0.37203000  0.12797000  1
  C  C838  1  0.50000000  0.31303000  0.18697000  1
  C  C839  1  0.50000000  0.27964000  0.22036000  1
  C  C840  1  0.23511000  0.03630000  0.23511000  1
  C  C841  1  0.23511000  0.53630000  0.73511000  1
  C  C842  1  0.73511000  0.03630000  0.73511000  1
  C  C843  1  0.73511000  0.53630000  0.23511000  1
  C  C844  1  0.76489000  0.96370000  0.23511000  1
  C  C845  1  0.76489000  0.46370000  0.73511000  1
  C  C846  1  0.26489000  0.96370000  0.73511000  1
  C  C847  1  0.26489000  0.46370000  0.23511000  1
  C  C848  1  0.76489000  0.03630000  0.76489000  1
  C  C849  1  0.76489000  0.53630000  0.26489000  1
  C  C850  1  0.26489000  0.03630000  0.26489000  1
  C  C851  1  0.26489000  0.53630000  0.76489000  1
  C  C852  1  0.23511000  0.96370000  0.76489000  1
  C  C853  1  0.23511000  0.46370000  0.26489000  1
  C  C854  1  0.73511000  0.96370000  0.26489000  1
  C  C855  1  0.73511000  0.46370000  0.76489000  1
  C  C856  1  0.23511000  0.23511000  0.03630000  1
  C  C857  1  0.23511000  0.73511000  0.53630000  1
  C  C858  1  0.73511000  0.23511000  0.53630000  1
  C  C859  1  0.73511000  0.73511000  0.03630000  1
  C  C860  1  0.23511000  0.76489000  0.96370000  1
  C  C861  1  0.23511000  0.26489000  0.46370000  1
  C  C862  1  0.73511000  0.76489000  0.46370000  1
  C  C863  1  0.73511000  0.26489000  0.96370000  1
  C  C864  1  0.76489000  0.76489000  0.03630000  1
  C  C865  1  0.76489000  0.26489000  0.53630000  1
  C  C866  1  0.26489000  0.76489000  0.53630000  1
  C  C867  1  0.26489000  0.26489000  0.03630000  1
  C  C868  1  0.76489000  0.23511000  0.96370000  1
  C  C869  1  0.76489000  0.73511000  0.46370000  1
  C  C870  1  0.26489000  0.23511000  0.46370000  1
  C  C871  1  0.26489000  0.73511000  0.96370000  1
  C  C872  1  0.03630000  0.23511000  0.23511000  1
  C  C873  1  0.03630000  0.73511000  0.73511000  1
  C  C874  1  0.53630000  0.23511000  0.73511000  1
  C  C875  1  0.53630000  0.73511000  0.23511000  1
  C  C876  1  0.96370000  0.23511000  0.76489000  1
  C  C877  1  0.96370000  0.73511000  0.26489000  1
  C  C878  1  0.46370000  0.23511000  0.26489000  1
  C  C879  1  0.46370000  0.73511000  0.76489000  1
  C  C880  1  0.03630000  0.76489000  0.76489000  1
  C  C881  1  0.03630000  0.26489000  0.26489000  1
  C  C882  1  0.53630000  0.76489000  0.26489000  1
  C  C883  1  0.53630000  0.26489000  0.76489000  1
  C  C884  1  0.96370000  0.76489000  0.23511000  1
  C  C885  1  0.96370000  0.26489000  0.73511000  1
  C  C886  1  0.46370000  0.76489000  0.73511000  1
  C  C887  1  0.46370000  0.26489000  0.23511000  1
  C  C888  1  0.03630000  0.23511000  0.76489000  1
  C  C889  1  0.03630000  0.73511000  0.26489000  1
  C  C890  1  0.53630000  0.23511000  0.26489000  1
  C  C891  1  0.53630000  0.73511000  0.76489000  1
  C  C892  1  0.96370000  0.76489000  0.76489000  1
  C  C893  1  0.96370000  0.26489000  0.26489000  1
  C  C894  1  0.46370000  0.76489000  0.26489000  1
  C  C895  1  0.46370000  0.26489000  0.76489000  1
  C  C896  1  0.03630000  0.76489000  0.23511000  1
  C  C897  1  0.03630000  0.26489000  0.73511000  1
  C  C898  1  0.53630000  0.76489000  0.73511000  1
  C  C899  1  0.53630000  0.26489000  0.23511000  1
  C  C900  1  0.96370000  0.23511000  0.23511000  1
  C  C901  1  0.96370000  0.73511000  0.73511000  1
  C  C902  1  0.46370000  0.23511000  0.73511000  1
  C  C903  1  0.46370000  0.73511000  0.23511000  1
  C  C904  1  0.23511000  0.23511000  0.96370000  1
  C  C905  1  0.23511000  0.73511000  0.46370000  1
  C  C906  1  0.73511000  0.23511000  0.46370000  1
  C  C907  1  0.73511000  0.73511000  0.96370000  1
  C  C908  1  0.76489000  0.23511000  0.03630000  1
  C  C909  1  0.76489000  0.73511000  0.53630000  1
  C  C910  1  0.26489000  0.23511000  0.53630000  1
  C  C911  1  0.26489000  0.73511000  0.03630000  1
  C  C912  1  0.76489000  0.76489000  0.96370000  1
  C  C913  1  0.76489000  0.26489000  0.46370000  1
  C  C914  1  0.26489000  0.76489000  0.46370000  1
  C  C915  1  0.26489000  0.26489000  0.96370000  1
  C  C916  1  0.23511000  0.76489000  0.03630000  1
  C  C917  1  0.23511000  0.26489000  0.53630000  1
  C  C918  1  0.73511000  0.76489000  0.53630000  1
  C  C919  1  0.73511000  0.26489000  0.03630000  1
  C  C920  1  0.23511000  0.03630000  0.76489000  1
  C  C921  1  0.23511000  0.53630000  0.26489000  1
  C  C922  1  0.73511000  0.03630000  0.26489000  1
  C  C923  1  0.73511000  0.53630000  0.76489000  1
  C  C924  1  0.23511000  0.96370000  0.23511000  1
  C  C925  1  0.23511000  0.46370000  0.73511000  1
  C  C926  1  0.73511000  0.96370000  0.73511000  1
  C  C927  1  0.73511000  0.46370000  0.23511000  1
  C  C928  1  0.76489000  0.03630000  0.23511000  1
  C  C929  1  0.76489000  0.53630000  0.73511000  1
  C  C930  1  0.26489000  0.03630000  0.73511000  1
  C  C931  1  0.26489000  0.53630000  0.23511000  1
  C  C932  1  0.76489000  0.96370000  0.76489000  1
  C  C933  1  0.76489000  0.46370000  0.26489000  1
  C  C934  1  0.26489000  0.96370000  0.26489000  1
  C  C935  1  0.26489000  0.46370000  0.76489000  1
  O  O936  1  0.03666000  0.96334000  0.03666000  1
  O  O937  1  0.03666000  0.46334000  0.53666000  1
  O  O938  1  0.53666000  0.96334000  0.53666000  1
  O  O939  1  0.53666000  0.46334000  0.03666000  1
  O  O940  1  0.96334000  0.03666000  0.03666000  1
  O  O941  1  0.96334000  0.53666000  0.53666000  1
  O  O942  1  0.46334000  0.03666000  0.53666000  1
  O  O943  1  0.46334000  0.53666000  0.03666000  1
  O  O944  1  0.96334000  0.96334000  0.96334000  1
  O  O945  1  0.96334000  0.46334000  0.46334000  1
  O  O946  1  0.46334000  0.96334000  0.46334000  1
  O  O947  1  0.46334000  0.46334000  0.96334000  1
  O  O948  1  0.03666000  0.03666000  0.96334000  1
  O  O949  1  0.03666000  0.53666000  0.46334000  1
  O  O950  1  0.53666000  0.03666000  0.46334000  1
  O  O951  1  0.53666000  0.53666000  0.96334000  1
  O  O952  1  0.96334000  0.03666000  0.96334000  1
  O  O953  1  0.96334000  0.53666000  0.46334000  1
  O  O954  1  0.46334000  0.03666000  0.46334000  1
  O  O955  1  0.46334000  0.53666000  0.96334000  1
  O  O956  1  0.03666000  0.96334000  0.96334000  1
  O  O957  1  0.03666000  0.46334000  0.46334000  1
  O  O958  1  0.53666000  0.96334000  0.46334000  1
  O  O959  1  0.53666000  0.46334000  0.96334000  1
  O  O960  1  0.96334000  0.96334000  0.03666000  1
  O  O961  1  0.96334000  0.46334000  0.53666000  1
  O  O962  1  0.46334000  0.96334000  0.53666000  1
  O  O963  1  0.46334000  0.46334000  0.03666000  1
  O  O964  1  0.03666000  0.03666000  0.03666000  1
  O  O965  1  0.03666000  0.53666000  0.53666000  1
  O  O966  1  0.53666000  0.03666000  0.53666000  1
  O  O967  1  0.53666000  0.53666000  0.03666000  1
  O  O968  1  0.05841000  0.00000000  0.10851000  1
  O  O969  1  0.05841000  0.50000000  0.60851000  1
  O  O970  1  0.55841000  0.00000000  0.60851000  1
  O  O971  1  0.55841000  0.50000000  0.10851000  1
  O  O972  1  0.94159000  0.00000000  0.10851000  1
  O  O973  1  0.94159000  0.50000000  0.60851000  1
  O  O974  1  0.44159000  0.00000000  0.60851000  1
  O  O975  1  0.44159000  0.50000000  0.10851000  1
  O  O976  1  0.94159000  0.00000000  0.89149000  1
  O  O977  1  0.94159000  0.50000000  0.39149000  1
  O  O978  1  0.44159000  0.00000000  0.39149000  1
  O  O979  1  0.44159000  0.50000000  0.89149000  1
  O  O980  1  0.05841000  0.00000000  0.89149000  1
  O  O981  1  0.05841000  0.50000000  0.39149000  1
  O  O982  1  0.55841000  0.00000000  0.39149000  1
  O  O983  1  0.55841000  0.50000000  0.89149000  1
  O  O984  1  0.10851000  0.05841000  0.00000000  1
  O  O985  1  0.10851000  0.55841000  0.50000000  1
  O  O986  1  0.60851000  0.05841000  0.50000000  1
  O  O987  1  0.60851000  0.55841000  0.00000000  1
  O  O988  1  0.10851000  0.94159000  0.00000000  1
  O  O989  1  0.10851000  0.44159000  0.50000000  1
  O  O990  1  0.60851000  0.94159000  0.50000000  1
  O  O991  1  0.60851000  0.44159000  0.00000000  1
  O  O992  1  0.89149000  0.94159000  0.00000000  1
  O  O993  1  0.89149000  0.44159000  0.50000000  1
  O  O994  1  0.39149000  0.94159000  0.50000000  1
  O  O995  1  0.39149000  0.44159000  0.00000000  1
  O  O996  1  0.89149000  0.05841000  0.00000000  1
  O  O997  1  0.89149000  0.55841000  0.50000000  1
  O  O998  1  0.39149000  0.05841000  0.50000000  1
  O  O999  1  0.39149000  0.55841000  0.00000000  1
  O  O1000  1  0.00000000  0.10851000  0.05841000  1
  O  O1001  1  0.00000000  0.60851000  0.55841000  1
  O  O1002  1  0.50000000  0.10851000  0.55841000  1
  O  O1003  1  0.50000000  0.60851000  0.05841000  1
  O  O1004  1  0.00000000  0.10851000  0.94159000  1
  O  O1005  1  0.00000000  0.60851000  0.44159000  1
  O  O1006  1  0.50000000  0.10851000  0.44159000  1
  O  O1007  1  0.50000000  0.60851000  0.94159000  1
  O  O1008  1  0.00000000  0.89149000  0.94159000  1
  O  O1009  1  0.00000000  0.39149000  0.44159000  1
  O  O1010  1  0.50000000  0.89149000  0.44159000  1
  O  O1011  1  0.50000000  0.39149000  0.94159000  1
  O  O1012  1  0.00000000  0.89149000  0.05841000  1
  O  O1013  1  0.00000000  0.39149000  0.55841000  1
  O  O1014  1  0.50000000  0.89149000  0.55841000  1
  O  O1015  1  0.50000000  0.39149000  0.05841000  1
  O  O1016  1  0.00000000  0.05841000  0.89149000  1
  O  O1017  1  0.00000000  0.55841000  0.39149000  1
  O  O1018  1  0.50000000  0.05841000  0.39149000  1
  O  O1019  1  0.50000000  0.55841000  0.89149000  1
  O  O1020  1  0.00000000  0.94159000  0.89149000  1
  O  O1021  1  0.00000000  0.44159000  0.39149000  1
  O  O1022  1  0.50000000  0.94159000  0.39149000  1
  O  O1023  1  0.50000000  0.44159000  0.89149000  1
  O  O1024  1  0.00000000  0.94159000  0.10851000  1
  O  O1025  1  0.00000000  0.44159000  0.60851000  1
  O  O1026  1  0.50000000  0.94159000  0.60851000  1
  O  O1027  1  0.50000000  0.44159000  0.10851000  1
  O  O1028  1  0.00000000  0.05841000  0.10851000  1
  O  O1029  1  0.00000000  0.55841000  0.60851000  1
  O  O1030  1  0.50000000  0.05841000  0.60851000  1
  O  O1031  1  0.50000000  0.55841000  0.10851000  1
  O  O1032  1  0.05841000  0.10851000  0.00000000  1
  O  O1033  1  0.05841000  0.60851000  0.50000000  1
  O  O1034  1  0.55841000  0.10851000  0.50000000  1
  O  O1035  1  0.55841000  0.60851000  0.00000000  1
  O  O1036  1  0.94159000  0.10851000  0.00000000  1
  O  O1037  1  0.94159000  0.60851000  0.50000000  1
  O  O1038  1  0.44159000  0.10851000  0.50000000  1
  O  O1039  1  0.44159000  0.60851000  0.00000000  1
  O  O1040  1  0.94159000  0.89149000  0.00000000  1
  O  O1041  1  0.94159000  0.39149000  0.50000000  1
  O  O1042  1  0.44159000  0.89149000  0.50000000  1
  O  O1043  1  0.44159000  0.39149000  0.00000000  1
  O  O1044  1  0.05841000  0.89149000  0.00000000  1
  O  O1045  1  0.05841000  0.39149000  0.50000000  1
  O  O1046  1  0.55841000  0.89149000  0.50000000  1
  O  O1047  1  0.55841000  0.39149000  0.00000000  1
  O  O1048  1  0.10851000  0.00000000  0.94159000  1
  O  O1049  1  0.10851000  0.50000000  0.44159000  1
  O  O1050  1  0.60851000  0.00000000  0.44159000  1
  O  O1051  1  0.60851000  0.50000000  0.94159000  1
  O  O1052  1  0.10851000  0.00000000  0.05841000  1
  O  O1053  1  0.10851000  0.50000000  0.55841000  1
  O  O1054  1  0.60851000  0.00000000  0.55841000  1
  O  O1055  1  0.60851000  0.50000000  0.05841000  1
  O  O1056  1  0.89149000  0.00000000  0.05841000  1
  O  O1057  1  0.89149000  0.50000000  0.55841000  1
  O  O1058  1  0.39149000  0.00000000  0.55841000  1
  O  O1059  1  0.39149000  0.50000000  0.05841000  1
  O  O1060  1  0.89149000  0.00000000  0.94159000  1
  O  O1061  1  0.89149000  0.50000000  0.44159000  1
  O  O1062  1  0.39149000  0.00000000  0.44159000  1
  O  O1063  1  0.39149000  0.50000000  0.94159000  1
