data_ADAQAA

_audit_creation_method RASPA-1.0
_audit_creation_date 2020-4-3
_audit_author_name 'Rocio Bueno-Perez'

_cell_length_a    17.842
_cell_length_b    37.867
_cell_length_c    33.693
_cell_angle_alpha 90
_cell_angle_beta  90
_cell_angle_gamma 90
_cell_volume      22763.8

_symmetry_cell_setting          orthorhombic
_symmetry_space_group_name_Hall 'P 1'
_symmetry_space_group_name_H-M  'P 1'
_symmetry_Int_Tables_number     1

_symmetry_equiv_pos_as_xyz 'x,y,z'

loop_
_atom_site_label
_atom_site_type_symbol
_atom_site_fract_x
_atom_site_fract_y
_atom_site_fract_z
_atom_site_charge
Zr1      Zr     0.524430000000     0.563650000000     0.500000000000     0          
Zr2      Zr     0.597900000000     0.491760000000     0.447520000000     0          
O1       O      0.609800000000     0.522880000000     0.500000000000     0          
O2       O      0.587100000000     0.460740000000     0.500000000000     0          
O3       O      0.487750000000     0.468790000000     0.447050000000     0          
O4       O      0.589500000000     0.492480000000     0.382750000000     0          
H1       H      0.594000000000     0.478800000000     0.362300000000     0          
H2       H      0.577000000000     0.511200000000     0.369400000000     0          
O5       O      0.718070000000     0.481210000000     0.448910000000     0          
H3       H      0.764200000000     0.486900000000     0.442900000000     0          
H4       H      0.729000000000     0.466200000000     0.467000000000     0          
O6       O      0.462140000000     0.598880000000     0.539040000000     0          
O7       O      0.384660000000     0.564260000000     0.574690000000     0          
O8       O      0.154850000000     0.958770000000     0.926390000000     0          
O9       O      0.107990000000     0.912790000000     0.960440000000     0          
C1       C      0.417500000000     0.592810000000     0.567720000000     0          
C2       C      0.405600000000     0.622740000000     0.595730000000     0          
C3       C      0.361300000000     0.618990000000     0.628800000000     0          
H5       H      0.335600000000     0.597400000000     0.633200000000     0          
C4       C      0.353700000000     0.646060000000     0.655500000000     0          
H6       H      0.322500000000     0.643000000000     0.678100000000     0          
C5       C      0.391400000000     0.678380000000     0.649940000000     0          
C6       C      0.435200000000     0.682170000000     0.615870000000     0          
H7       H      0.460400000000     0.703800000000     0.611000000000     0          
C7       C      0.442200000000     0.654600000000     0.589050000000     0          
H8       H      0.472200000000     0.657500000000     0.566000000000     0          
C8       C      0.385300000000     0.707840000000     0.678880000000     0          
C9       C      0.320500000000     0.711870000000     0.701850000000     0          
H9       H      0.279900000000     0.695800000000     0.699200000000     0          
C10      C      0.316200000000     0.739470000000     0.728370000000     0          
C11      C      0.250000000000     0.750000000000     0.754890000000     0          
C12      C      0.282800000000     0.781130000000     0.777400000000     0          
C13      C      0.248500000000     0.801780000000     0.805960000000     0          
H10      H      0.199900000000     0.796100000000     0.815500000000     0          
C14      C      0.287400000000     0.831630000000     0.820620000000     0          
C15      C      0.358200000000     0.839240000000     0.805880000000     0          
H11      H      0.384000000000     0.859300000000     0.815900000000     0          
C16      C      0.392600000000     0.818740000000     0.777120000000     0          
H12      H      0.440900000000     0.824600000000     0.767200000000     0          
C17      C      0.354000000000     0.789270000000     0.763210000000     0          
C18      C      0.375600000000     0.763170000000     0.732810000000     0          
C19      C      0.439000000000     0.759450000000     0.709740000000     0          
H13      H      0.479200000000     0.775800000000     0.712000000000     0          
C20      C      0.443200000000     0.731690000000     0.683320000000     0          
H14      H      0.487200000000     0.728900000000     0.667700000000     0          
C21      C      0.251300000000     0.855390000000     0.850030000000     0          
C22      C      0.202300000000     0.842670000000     0.879170000000     0          
H15      H      0.191000000000     0.818200000000     0.880200000000     0          
C23      C      0.170400000000     0.865350000000     0.906330000000     0          
H16      H      0.137800000000     0.856300000000     0.926200000000     0          
C24      C      0.185500000000     0.901360000000     0.904810000000     0          
C25      C      0.232800000000     0.914280000000     0.876440000000     0          
H17      H      0.243000000000     0.938900000000     0.875400000000     0          
C26      C      0.266300000000     0.891840000000     0.849050000000     0          
H18      H      0.299300000000     0.901200000000     0.829600000000     0          
C27      C      0.146900000000     0.926420000000     0.932820000000     0          
O6E      O      0.037860000000     0.901120000000     0.539040000000     0          
O7E      O      0.115340000000     0.935740000000     0.574690000000     0          
O8E      O      0.345150000000     0.541230000000     0.926390000000     0          
O9E      O      0.392010000000     0.587210000000     0.960440000000     0          
C1E      C      0.082500000000     0.907190000000     0.567720000000     0          
C2E      C      0.094400000000     0.877260000000     0.595730000000     0          
C3E      C      0.138700000000     0.881010000000     0.628800000000     0          
H5E      H      0.164400000000     0.902600000000     0.633200000000     0          
C4E      C      0.146300000000     0.853940000000     0.655500000000     0          
H6E      H      0.177500000000     0.857000000000     0.678100000000     0          
C5E      C      0.108600000000     0.821620000000     0.649940000000     0          
C6E      C      0.064800000000     0.817830000000     0.615870000000     0          
H7E      H      0.039600000000     0.796200000000     0.611000000000     0          
C7E      C      0.057800000000     0.845400000000     0.589050000000     0          
H8E      H      0.027800000000     0.842500000000     0.566000000000     0          
C8E      C      0.114700000000     0.792160000000     0.678880000000     0          
C9E      C      0.179500000000     0.788130000000     0.701850000000     0          
H9E      H      0.220100000000     0.804200000000     0.699200000000     0          
C10E     C      0.183800000000     0.760530000000     0.728370000000     0          
C12E     C      0.217200000000     0.718870000000     0.777400000000     0          
C13E     C      0.251500000000     0.698220000000     0.805960000000     0          
H10E     H      0.300100000000     0.703900000000     0.815500000000     0          
C14E     C      0.212600000000     0.668370000000     0.820620000000     0          
C15E     C      0.141800000000     0.660760000000     0.805880000000     0          
H11E     H      0.116000000000     0.640700000000     0.815900000000     0          
C16E     C      0.107400000000     0.681260000000     0.777120000000     0          
H12E     H      0.059100000000     0.675400000000     0.767200000000     0          
C17E     C      0.146000000000     0.710730000000     0.763210000000     0          
C18E     C      0.124400000000     0.736830000000     0.732810000000     0          
C19E     C      0.061000000000     0.740550000000     0.709740000000     0          
H13E     H      0.020800000000     0.724200000000     0.712000000000     0          
C20E     C      0.056800000000     0.768310000000     0.683320000000     0          
H14E     H      0.012800000000     0.771100000000     0.667700000000     0          
C21E     C      0.248700000000     0.644610000000     0.850030000000     0          
C22E     C      0.297700000000     0.657330000000     0.879170000000     0          
H15E     H      0.309000000000     0.681800000000     0.880200000000     0          
C23E     C      0.329600000000     0.634650000000     0.906330000000     0          
H16E     H      0.362200000000     0.643700000000     0.926200000000     0          
C24E     C      0.314500000000     0.598640000000     0.904810000000     0          
C25E     C      0.267200000000     0.585720000000     0.876440000000     0          
H17E     H      0.257000000000     0.561100000000     0.875400000000     0          
C26E     C      0.233700000000     0.608160000000     0.849050000000     0          
H18E     H      0.200700000000     0.598800000000     0.829600000000     0          
C27E     C      0.353100000000     0.573580000000     0.932820000000     0          
Zr2A     Zr     0.402100000000     0.508240000000     0.447520000000     0          
O3A      O      0.512250000000     0.531210000000     0.447050000000     0          
O4A      O      0.410500000000     0.507520000000     0.382750000000     0          
H1A      H      0.406000000000     0.521200000000     0.362300000000     0          
H2A      H      0.423000000000     0.488800000000     0.369400000000     0          
O5A      O      0.281930000000     0.518790000000     0.448910000000     0          
H3A      H      0.235800000000     0.513100000000     0.442900000000     0          
H4A      H      0.271000000000     0.533800000000     0.467000000000     0          
Zr1A     Zr     0.475570000000     0.436350000000     0.500000000000     0          
Zr1B     Zr     0.475570000000     0.563650000000     0.000000000000     0          
Zr1E     Zr     0.975570000000     0.936350000000     0.500000000000     0          
Zr1G     Zr     0.024430000000     0.936350000000     0.000000000000     0          
Zr2H     Zr     0.402100000000     0.508240000000     0.552480000000     0          
Zr2I     Zr     0.597900000000     0.491760000000     0.552480000000     0          
Zr2K     Zr     0.402100000000     0.491760000000     0.947520000000     0          
Zr2M     Zr     0.097900000000     0.991760000000     0.552480000000     0          
Zr2N     Zr     0.097900000000     0.008240000000     0.947520000000     0          
O1A      O      0.390200000000     0.477120000000     0.500000000000     0          
O2A      O      0.412900000000     0.539260000000     0.500000000000     0          
O3H      O      0.512250000000     0.531210000000     0.552950000000     0          
O6I      O      0.462140000000     0.598880000000     0.460960000000     0          
O7H      O      0.615340000000     0.435740000000     0.425310000000     0          
O7I      O      0.384660000000     0.564260000000     0.425310000000     0          
O8N      O      0.654850000000     0.541230000000     0.426390000000     0          
O8O      O      0.345150000000     0.458770000000     0.426390000000     0          
O9G      O      0.607990000000     0.587210000000     0.539560000000     0          
O9N      O      0.607990000000     0.587210000000     0.460440000000     0          
O6       O      0.537860000000     0.401120000000     0.539040000000     0          
O7       O      0.615340000000     0.435740000000     0.574690000000     0          
O8       O      0.845150000000     0.041230000000     0.926390000000     0          
O9       O      0.892010000000     0.087210000000     0.960440000000     0          
C1       C      0.582500000000     0.407190000000     0.567720000000     0          
C2       C      0.594400000000     0.377260000000     0.595730000000     0          
C3       C      0.638700000000     0.381010000000     0.628800000000     0          
H5       H      0.664400000000     0.402600000000     0.633200000000     0          
C4       C      0.646300000000     0.353940000000     0.655500000000     0          
H6       H      0.677500000000     0.357000000000     0.678100000000     0          
C5       C      0.608600000000     0.321620000000     0.649940000000     0          
C6       C      0.564800000000     0.317830000000     0.615870000000     0          
H7       H      0.539600000000     0.296200000000     0.611000000000     0          
C7       C      0.557800000000     0.345400000000     0.589050000000     0          
H8       H      0.527800000000     0.342500000000     0.566000000000     0          
C8       C      0.614700000000     0.292160000000     0.678880000000     0          
C9       C      0.679500000000     0.288130000000     0.701850000000     0          
H9       H      0.720100000000     0.304200000000     0.699200000000     0          
C10      C      0.683800000000     0.260530000000     0.728370000000     0          
C11      C      0.750000000000     0.250000000000     0.754890000000     0          
C12      C      0.717200000000     0.218870000000     0.777400000000     0          
C13      C      0.751500000000     0.198220000000     0.805960000000     0          
H10      H      0.800100000000     0.203900000000     0.815500000000     0          
C14      C      0.712600000000     0.168370000000     0.820620000000     0          
C15      C      0.641800000000     0.160760000000     0.805880000000     0          
H11      H      0.616000000000     0.140700000000     0.815900000000     0          
C16      C      0.607400000000     0.181260000000     0.777120000000     0          
H12      H      0.559100000000     0.175400000000     0.767200000000     0          
C17      C      0.646000000000     0.210730000000     0.763210000000     0          
C18      C      0.624400000000     0.236830000000     0.732810000000     0          
C19      C      0.561000000000     0.240550000000     0.709740000000     0          
H13      H      0.520800000000     0.224200000000     0.712000000000     0          
C20      C      0.556800000000     0.268310000000     0.683320000000     0          
H14      H      0.512800000000     0.271100000000     0.667700000000     0          
C21      C      0.748700000000     0.144610000000     0.850030000000     0          
C22      C      0.797700000000     0.157330000000     0.879170000000     0          
H15      H      0.809000000000     0.181800000000     0.880200000000     0          
C23      C      0.829600000000     0.134650000000     0.906330000000     0          
H16      H      0.862200000000     0.143700000000     0.926200000000     0          
C24      C      0.814500000000     0.098640000000     0.904810000000     0          
C25      C      0.767200000000     0.085720000000     0.876440000000     0          
H17      H      0.757000000000     0.061100000000     0.875400000000     0          
C26      C      0.733700000000     0.108160000000     0.849050000000     0          
H18      H      0.700700000000     0.098800000000     0.829600000000     0          
C27      C      0.853100000000     0.073580000000     0.932820000000     0          
O6E      O      0.962140000000     0.098880000000     0.539040000000     0          
O7E      O      0.884660000000     0.064260000000     0.574690000000     0          
O8E      O      0.654850000000     0.458770000000     0.926390000000     0          
O9E      O      0.607990000000     0.412790000000     0.960440000000     0          
C1E      C      0.917500000000     0.092810000000     0.567720000000     0          
C2E      C      0.905600000000     0.122740000000     0.595730000000     0          
C3E      C      0.861300000000     0.118990000000     0.628800000000     0          
H5E      H      0.835600000000     0.097400000000     0.633200000000     0          
C4E      C      0.853700000000     0.146060000000     0.655500000000     0          
H6E      H      0.822500000000     0.143000000000     0.678100000000     0          
C5E      C      0.891400000000     0.178380000000     0.649940000000     0          
C6E      C      0.935200000000     0.182170000000     0.615870000000     0          
H7E      H      0.960400000000     0.203800000000     0.611000000000     0          
C7E      C      0.942200000000     0.154600000000     0.589050000000     0          
H8E      H      0.972200000000     0.157500000000     0.566000000000     0          
C8E      C      0.885300000000     0.207840000000     0.678880000000     0          
C9E      C      0.820500000000     0.211870000000     0.701850000000     0          
H9E      H      0.779900000000     0.195800000000     0.699200000000     0          
C10E     C      0.816200000000     0.239470000000     0.728370000000     0          
C12E     C      0.782800000000     0.281130000000     0.777400000000     0          
C13E     C      0.748500000000     0.301780000000     0.805960000000     0          
H10E     H      0.699900000000     0.296100000000     0.815500000000     0          
C14E     C      0.787400000000     0.331630000000     0.820620000000     0          
C15E     C      0.858200000000     0.339240000000     0.805880000000     0          
H11E     H      0.884000000000     0.359300000000     0.815900000000     0          
C16E     C      0.892600000000     0.318740000000     0.777120000000     0          
H12E     H      0.940900000000     0.324600000000     0.767200000000     0          
C17E     C      0.854000000000     0.289270000000     0.763210000000     0          
C18E     C      0.875600000000     0.263170000000     0.732810000000     0          
C19E     C      0.939000000000     0.259450000000     0.709740000000     0          
H13E     H      0.979200000000     0.275800000000     0.712000000000     0          
C20E     C      0.943200000000     0.231690000000     0.683320000000     0          
H14E     H      0.987200000000     0.228900000000     0.667700000000     0          
C21E     C      0.751300000000     0.355390000000     0.850030000000     0          
C22E     C      0.702300000000     0.342670000000     0.879170000000     0          
H15E     H      0.691000000000     0.318200000000     0.880200000000     0          
C23E     C      0.670400000000     0.365350000000     0.906330000000     0          
H16E     H      0.637800000000     0.356300000000     0.926200000000     0          
C24E     C      0.685500000000     0.401360000000     0.904810000000     0          
C25E     C      0.732800000000     0.414280000000     0.876440000000     0          
H17E     H      0.743000000000     0.438900000000     0.875400000000     0          
C26E     C      0.766300000000     0.391840000000     0.849050000000     0          
H18E     H      0.799300000000     0.401200000000     0.829600000000     0          
C27E     C      0.646900000000     0.426420000000     0.932820000000     0          
Zr1B     Zr     0.524430000000     0.436350000000     0.000000000000     0          
Zr1E     Zr     0.024430000000     0.063650000000     0.500000000000     0          
Zr1G     Zr     0.975570000000     0.063650000000     0.000000000000     0          
Zr2K     Zr     0.597900000000     0.508240000000     0.947520000000     0          
Zr2M     Zr     0.902100000000     0.008240000000     0.552480000000     0          
Zr2N     Zr     0.902100000000     0.991760000000     0.947520000000     0          
O3H      O      0.487750000000     0.468790000000     0.552950000000     0          
O6I      O      0.537860000000     0.401120000000     0.460960000000     0          
O9G      O      0.392010000000     0.412790000000     0.539560000000     0          
O9N      O      0.392010000000     0.412790000000     0.460440000000     0          
Zr2      Zr     0.597900000000     0.508240000000     0.052480000000     0          
O1       O      0.609800000000     0.477120000000     0.000000000000     0          
O2       O      0.587100000000     0.539260000000     0.000000000000     0          
O3       O      0.487750000000     0.531210000000     0.052950000000     0          
O4       O      0.589500000000     0.507520000000     0.117250000000     0          
H1       H      0.594000000000     0.521200000000     0.137700000000     0          
H2       H      0.577000000000     0.488800000000     0.130600000000     0          
O5       O      0.718070000000     0.518790000000     0.051090000000     0          
H3       H      0.764200000000     0.513100000000     0.057100000000     0          
H4       H      0.729000000000     0.533800000000     0.033000000000     0          
O6       O      0.462140000000     0.401120000000     0.960960000000     0          
O7       O      0.384660000000     0.435740000000     0.925310000000     0          
O8       O      0.154850000000     0.041230000000     0.573610000000     0          
O9       O      0.107990000000     0.087210000000     0.539560000000     0          
C1       C      0.417500000000     0.407190000000     0.932280000000     0          
C2       C      0.405600000000     0.377260000000     0.904270000000     0          
C3       C      0.361300000000     0.381010000000     0.871200000000     0          
H5       H      0.335600000000     0.402600000000     0.866800000000     0          
C4       C      0.353700000000     0.353940000000     0.844500000000     0          
H6       H      0.322500000000     0.357000000000     0.821900000000     0          
C5       C      0.391400000000     0.321620000000     0.850060000000     0          
C6       C      0.435200000000     0.317830000000     0.884130000000     0          
H7       H      0.460400000000     0.296200000000     0.889000000000     0          
C7       C      0.442200000000     0.345400000000     0.910950000000     0          
H8       H      0.472200000000     0.342500000000     0.934000000000     0          
C8       C      0.385300000000     0.292160000000     0.821120000000     0          
C9       C      0.320500000000     0.288130000000     0.798150000000     0          
H9       H      0.279900000000     0.304200000000     0.800800000000     0          
C10      C      0.316200000000     0.260530000000     0.771630000000     0          
C11      C      0.250000000000     0.250000000000     0.745110000000     0          
C12      C      0.282800000000     0.218870000000     0.722600000000     0          
C13      C      0.248500000000     0.198220000000     0.694040000000     0          
H10      H      0.199900000000     0.203900000000     0.684500000000     0          
C14      C      0.287400000000     0.168370000000     0.679380000000     0          
C15      C      0.358200000000     0.160760000000     0.694120000000     0          
H11      H      0.384000000000     0.140700000000     0.684100000000     0          
C16      C      0.392600000000     0.181260000000     0.722880000000     0          
H12      H      0.440900000000     0.175400000000     0.732800000000     0          
C17      C      0.354000000000     0.210730000000     0.736790000000     0          
C18      C      0.375600000000     0.236830000000     0.767190000000     0          
C19      C      0.439000000000     0.240550000000     0.790260000000     0          
H13      H      0.479200000000     0.224200000000     0.788000000000     0          
C20      C      0.443200000000     0.268310000000     0.816680000000     0          
H14      H      0.487200000000     0.271100000000     0.832300000000     0          
C21      C      0.251300000000     0.144610000000     0.649970000000     0          
C22      C      0.202300000000     0.157330000000     0.620830000000     0          
H15      H      0.191000000000     0.181800000000     0.619800000000     0          
C23      C      0.170400000000     0.134650000000     0.593670000000     0          
H16      H      0.137800000000     0.143700000000     0.573800000000     0          
C24      C      0.185500000000     0.098640000000     0.595190000000     0          
C25      C      0.232800000000     0.085720000000     0.623560000000     0          
H17      H      0.243000000000     0.061100000000     0.624600000000     0          
C26      C      0.266300000000     0.108160000000     0.650950000000     0          
H18      H      0.299300000000     0.098800000000     0.670400000000     0          
C27      C      0.146900000000     0.073580000000     0.567180000000     0          
O6E      O      0.037860000000     0.098880000000     0.960960000000     0          
O7E      O      0.115340000000     0.064260000000     0.925310000000     0          
O8E      O      0.345150000000     0.458770000000     0.573610000000     0          
C1E      C      0.082500000000     0.092810000000     0.932280000000     0          
C2E      C      0.094400000000     0.122740000000     0.904270000000     0          
C3E      C      0.138700000000     0.118990000000     0.871200000000     0          
H5E      H      0.164400000000     0.097400000000     0.866800000000     0          
C4E      C      0.146300000000     0.146060000000     0.844500000000     0          
H6E      H      0.177500000000     0.143000000000     0.821900000000     0          
C5E      C      0.108600000000     0.178380000000     0.850060000000     0          
C6E      C      0.064800000000     0.182170000000     0.884130000000     0          
H7E      H      0.039600000000     0.203800000000     0.889000000000     0          
C7E      C      0.057800000000     0.154600000000     0.910950000000     0          
H8E      H      0.027800000000     0.157500000000     0.934000000000     0          
C8E      C      0.114700000000     0.207840000000     0.821120000000     0          
C9E      C      0.179500000000     0.211870000000     0.798150000000     0          
H9E      H      0.220100000000     0.195800000000     0.800800000000     0          
C10E     C      0.183800000000     0.239470000000     0.771630000000     0          
C12E     C      0.217200000000     0.281130000000     0.722600000000     0          
C13E     C      0.251500000000     0.301780000000     0.694040000000     0          
H10E     H      0.300100000000     0.296100000000     0.684500000000     0          
C14E     C      0.212600000000     0.331630000000     0.679380000000     0          
C15E     C      0.141800000000     0.339240000000     0.694120000000     0          
H11E     H      0.116000000000     0.359300000000     0.684100000000     0          
C16E     C      0.107400000000     0.318740000000     0.722880000000     0          
H12E     H      0.059100000000     0.324600000000     0.732800000000     0          
C17E     C      0.146000000000     0.289270000000     0.736790000000     0          
C18E     C      0.124400000000     0.263170000000     0.767190000000     0          
C19E     C      0.061000000000     0.259450000000     0.790260000000     0          
H13E     H      0.020800000000     0.275800000000     0.788000000000     0          
C20E     C      0.056800000000     0.231690000000     0.816680000000     0          
H14E     H      0.012800000000     0.228900000000     0.832300000000     0          
C21E     C      0.248700000000     0.355390000000     0.649970000000     0          
C22E     C      0.297700000000     0.342670000000     0.620830000000     0          
H15E     H      0.309000000000     0.318200000000     0.619800000000     0          
C23E     C      0.329600000000     0.365350000000     0.593670000000     0          
H16E     H      0.362200000000     0.356300000000     0.573800000000     0          
C24E     C      0.314500000000     0.401360000000     0.595190000000     0          
C25E     C      0.267200000000     0.414280000000     0.623560000000     0          
H17E     H      0.257000000000     0.438900000000     0.624600000000     0          
C26E     C      0.233700000000     0.391840000000     0.650950000000     0          
H18E     H      0.200700000000     0.401200000000     0.670400000000     0          
C27E     C      0.353100000000     0.426420000000     0.567180000000     0          
Zr2A     Zr     0.402100000000     0.491760000000     0.052480000000     0          
O3A      O      0.512250000000     0.468790000000     0.052950000000     0          
O4A      O      0.410500000000     0.492480000000     0.117250000000     0          
H1A      H      0.406000000000     0.478800000000     0.137700000000     0          
H2A      H      0.423000000000     0.511200000000     0.130600000000     0          
O5A      O      0.281930000000     0.481210000000     0.051090000000     0          
H3A      H      0.235800000000     0.486900000000     0.057100000000     0          
H4A      H      0.271000000000     0.466200000000     0.033000000000     0          
O1A      O      0.390200000000     0.522880000000     0.000000000000     0          
O2A      O      0.412900000000     0.460740000000     0.000000000000     0          
O3H      O      0.512250000000     0.468790000000     0.947050000000     0          
O6I      O      0.462140000000     0.401120000000     0.039040000000     0          
O7H      O      0.615340000000     0.564260000000     0.074690000000     0          
O7I      O      0.384660000000     0.435740000000     0.074690000000     0          
O8N      O      0.654850000000     0.458770000000     0.073610000000     0          
O8O      O      0.345150000000     0.541230000000     0.073610000000     0          
O9N      O      0.607990000000     0.412790000000     0.039560000000     0          
O6       O      0.537860000000     0.598880000000     0.960960000000     0          
O7       O      0.615340000000     0.564260000000     0.925310000000     0          
O8       O      0.845150000000     0.958770000000     0.573610000000     0          
O9       O      0.892010000000     0.912790000000     0.539560000000     0          
C1       C      0.582500000000     0.592810000000     0.932280000000     0          
C2       C      0.594400000000     0.622740000000     0.904270000000     0          
C3       C      0.638700000000     0.618990000000     0.871200000000     0          
H5       H      0.664400000000     0.597400000000     0.866800000000     0          
C4       C      0.646300000000     0.646060000000     0.844500000000     0          
H6       H      0.677500000000     0.643000000000     0.821900000000     0          
C5       C      0.608600000000     0.678380000000     0.850060000000     0          
C6       C      0.564800000000     0.682170000000     0.884130000000     0          
H7       H      0.539600000000     0.703800000000     0.889000000000     0          
C7       C      0.557800000000     0.654600000000     0.910950000000     0          
H8       H      0.527800000000     0.657500000000     0.934000000000     0          
C8       C      0.614700000000     0.707840000000     0.821120000000     0          
C9       C      0.679500000000     0.711870000000     0.798150000000     0          
H9       H      0.720100000000     0.695800000000     0.800800000000     0          
C10      C      0.683800000000     0.739470000000     0.771630000000     0          
C11      C      0.750000000000     0.750000000000     0.745110000000     0          
C12      C      0.717200000000     0.781130000000     0.722600000000     0          
C13      C      0.751500000000     0.801780000000     0.694040000000     0          
H10      H      0.800100000000     0.796100000000     0.684500000000     0          
C14      C      0.712600000000     0.831630000000     0.679380000000     0          
C15      C      0.641800000000     0.839240000000     0.694120000000     0          
H11      H      0.616000000000     0.859300000000     0.684100000000     0          
C16      C      0.607400000000     0.818740000000     0.722880000000     0          
H12      H      0.559100000000     0.824600000000     0.732800000000     0          
C17      C      0.646000000000     0.789270000000     0.736790000000     0          
C18      C      0.624400000000     0.763170000000     0.767190000000     0          
C19      C      0.561000000000     0.759450000000     0.790260000000     0          
H13      H      0.520800000000     0.775800000000     0.788000000000     0          
C20      C      0.556800000000     0.731690000000     0.816680000000     0          
H14      H      0.512800000000     0.728900000000     0.832300000000     0          
C21      C      0.748700000000     0.855390000000     0.649970000000     0          
C22      C      0.797700000000     0.842670000000     0.620830000000     0          
H15      H      0.809000000000     0.818200000000     0.619800000000     0          
C23      C      0.829600000000     0.865350000000     0.593670000000     0          
H16      H      0.862200000000     0.856300000000     0.573800000000     0          
C24      C      0.814500000000     0.901360000000     0.595190000000     0          
C25      C      0.767200000000     0.914280000000     0.623560000000     0          
H17      H      0.757000000000     0.938900000000     0.624600000000     0          
C26      C      0.733700000000     0.891840000000     0.650950000000     0          
H18      H      0.700700000000     0.901200000000     0.670400000000     0          
C27      C      0.853100000000     0.926420000000     0.567180000000     0          
O6E      O      0.962140000000     0.901120000000     0.960960000000     0          
O7E      O      0.884660000000     0.935740000000     0.925310000000     0          
O8E      O      0.654850000000     0.541230000000     0.573610000000     0          
C1E      C      0.917500000000     0.907190000000     0.932280000000     0          
C2E      C      0.905600000000     0.877260000000     0.904270000000     0          
C3E      C      0.861300000000     0.881010000000     0.871200000000     0          
H5E      H      0.835600000000     0.902600000000     0.866800000000     0          
C4E      C      0.853700000000     0.853940000000     0.844500000000     0          
H6E      H      0.822500000000     0.857000000000     0.821900000000     0          
C5E      C      0.891400000000     0.821620000000     0.850060000000     0          
C6E      C      0.935200000000     0.817830000000     0.884130000000     0          
H7E      H      0.960400000000     0.796200000000     0.889000000000     0          
C7E      C      0.942200000000     0.845400000000     0.910950000000     0          
H8E      H      0.972200000000     0.842500000000     0.934000000000     0          
C8E      C      0.885300000000     0.792160000000     0.821120000000     0          
C9E      C      0.820500000000     0.788130000000     0.798150000000     0          
H9E      H      0.779900000000     0.804200000000     0.800800000000     0          
C10E     C      0.816200000000     0.760530000000     0.771630000000     0          
C12E     C      0.782800000000     0.718870000000     0.722600000000     0          
C13E     C      0.748500000000     0.698220000000     0.694040000000     0          
H10E     H      0.699900000000     0.703900000000     0.684500000000     0          
C14E     C      0.787400000000     0.668370000000     0.679380000000     0          
C15E     C      0.858200000000     0.660760000000     0.694120000000     0          
H11E     H      0.884000000000     0.640700000000     0.684100000000     0          
C16E     C      0.892600000000     0.681260000000     0.722880000000     0          
H12E     H      0.940900000000     0.675400000000     0.732800000000     0          
C17E     C      0.854000000000     0.710730000000     0.736790000000     0          
C18E     C      0.875600000000     0.736830000000     0.767190000000     0          
C19E     C      0.939000000000     0.740550000000     0.790260000000     0          
H13E     H      0.979200000000     0.724200000000     0.788000000000     0          
C20E     C      0.943200000000     0.768310000000     0.816680000000     0          
H14E     H      0.987200000000     0.771100000000     0.832300000000     0          
C21E     C      0.751300000000     0.644610000000     0.649970000000     0          
C22E     C      0.702300000000     0.657330000000     0.620830000000     0          
H15E     H      0.691000000000     0.681800000000     0.619800000000     0          
C23E     C      0.670400000000     0.634650000000     0.593670000000     0          
H16E     H      0.637800000000     0.643700000000     0.573800000000     0          
C24E     C      0.685500000000     0.598640000000     0.595190000000     0          
C25E     C      0.732800000000     0.585720000000     0.623560000000     0          
H17E     H      0.743000000000     0.561100000000     0.624600000000     0          
C26E     C      0.766300000000     0.608160000000     0.650950000000     0          
H18E     H      0.799300000000     0.598800000000     0.670400000000     0          
C27E     C      0.646900000000     0.573580000000     0.567180000000     0          
O3H      O      0.487750000000     0.531210000000     0.947050000000     0          
O6I      O      0.537860000000     0.598880000000     0.039040000000     0          
O9N      O      0.392010000000     0.587210000000     0.039560000000     0          
O4       O      0.410500000000     0.507520000000     0.617250000000     0          
H1       H      0.406000000000     0.521200000000     0.637700000000     0          
H2       H      0.423000000000     0.488800000000     0.630600000000     0          
O5       O      0.281930000000     0.518790000000     0.551090000000     0          
H3       H      0.235800000000     0.513100000000     0.557100000000     0          
H4       H      0.271000000000     0.533800000000     0.533000000000     0          
O8       O      0.845150000000     0.041230000000     0.073610000000     0          
O9       O      0.892010000000     0.087210000000     0.039560000000     0          
C1       C      0.582500000000     0.407190000000     0.432280000000     0          
C2       C      0.594400000000     0.377260000000     0.404270000000     0          
C3       C      0.638700000000     0.381010000000     0.371200000000     0          
H5       H      0.664400000000     0.402600000000     0.366800000000     0          
C4       C      0.646300000000     0.353940000000     0.344500000000     0          
H6       H      0.677500000000     0.357000000000     0.321900000000     0          
C5       C      0.608600000000     0.321620000000     0.350060000000     0          
C6       C      0.564800000000     0.317830000000     0.384130000000     0          
H7       H      0.539600000000     0.296200000000     0.389000000000     0          
C7       C      0.557800000000     0.345400000000     0.410950000000     0          
H8       H      0.527800000000     0.342500000000     0.434000000000     0          
C8       C      0.614700000000     0.292160000000     0.321120000000     0          
C9       C      0.679500000000     0.288130000000     0.298150000000     0          
H9       H      0.720100000000     0.304200000000     0.300800000000     0          
C10      C      0.683800000000     0.260530000000     0.271630000000     0          
C11      C      0.750000000000     0.250000000000     0.245110000000     0          
C12      C      0.717200000000     0.218870000000     0.222600000000     0          
C13      C      0.751500000000     0.198220000000     0.194040000000     0          
H10      H      0.800100000000     0.203900000000     0.184500000000     0          
C14      C      0.712600000000     0.168370000000     0.179380000000     0          
C15      C      0.641800000000     0.160760000000     0.194120000000     0          
H11      H      0.616000000000     0.140700000000     0.184100000000     0          
C16      C      0.607400000000     0.181260000000     0.222880000000     0          
H12      H      0.559100000000     0.175400000000     0.232800000000     0          
C17      C      0.646000000000     0.210730000000     0.236790000000     0          
C18      C      0.624400000000     0.236830000000     0.267190000000     0          
C19      C      0.561000000000     0.240550000000     0.290260000000     0          
H13      H      0.520800000000     0.224200000000     0.288000000000     0          
C20      C      0.556800000000     0.268310000000     0.316680000000     0          
H14      H      0.512800000000     0.271100000000     0.332300000000     0          
C21      C      0.748700000000     0.144610000000     0.149970000000     0          
C22      C      0.797700000000     0.157330000000     0.120830000000     0          
H15      H      0.809000000000     0.181800000000     0.119800000000     0          
C23      C      0.829600000000     0.134650000000     0.093670000000     0          
H16      H      0.862200000000     0.143700000000     0.073800000000     0          
C24      C      0.814500000000     0.098640000000     0.095190000000     0          
C25      C      0.767200000000     0.085720000000     0.123560000000     0          
H17      H      0.757000000000     0.061100000000     0.124600000000     0          
C26      C      0.733700000000     0.108160000000     0.150950000000     0          
H18      H      0.700700000000     0.098800000000     0.170400000000     0          
C27      C      0.853100000000     0.073580000000     0.067180000000     0          
O6E      O      0.962140000000     0.098880000000     0.460960000000     0          
O7E      O      0.884660000000     0.064260000000     0.425310000000     0          
C1E      C      0.917500000000     0.092810000000     0.432280000000     0          
C2E      C      0.905600000000     0.122740000000     0.404270000000     0          
C3E      C      0.861300000000     0.118990000000     0.371200000000     0          
H5E      H      0.835600000000     0.097400000000     0.366800000000     0          
C4E      C      0.853700000000     0.146060000000     0.344500000000     0          
H6E      H      0.822500000000     0.143000000000     0.321900000000     0          
C5E      C      0.891400000000     0.178380000000     0.350060000000     0          
C6E      C      0.935200000000     0.182170000000     0.384130000000     0          
H7E      H      0.960400000000     0.203800000000     0.389000000000     0          
C7E      C      0.942200000000     0.154600000000     0.410950000000     0          
H8E      H      0.972200000000     0.157500000000     0.434000000000     0          
C8E      C      0.885300000000     0.207840000000     0.321120000000     0          
C9E      C      0.820500000000     0.211870000000     0.298150000000     0          
H9E      H      0.779900000000     0.195800000000     0.300800000000     0          
C10E     C      0.816200000000     0.239470000000     0.271630000000     0          
C12E     C      0.782800000000     0.281130000000     0.222600000000     0          
C13E     C      0.748500000000     0.301780000000     0.194040000000     0          
H10E     H      0.699900000000     0.296100000000     0.184500000000     0          
C14E     C      0.787400000000     0.331630000000     0.179380000000     0          
C15E     C      0.858200000000     0.339240000000     0.194120000000     0          
H11E     H      0.884000000000     0.359300000000     0.184100000000     0          
C16E     C      0.892600000000     0.318740000000     0.222880000000     0          
H12E     H      0.940900000000     0.324600000000     0.232800000000     0          
C17E     C      0.854000000000     0.289270000000     0.236790000000     0          
C18E     C      0.875600000000     0.263170000000     0.267190000000     0          
C19E     C      0.939000000000     0.259450000000     0.290260000000     0          
H13E     H      0.979200000000     0.275800000000     0.288000000000     0          
C20E     C      0.943200000000     0.231690000000     0.316680000000     0          
H14E     H      0.987200000000     0.228900000000     0.332300000000     0          
C21E     C      0.751300000000     0.355390000000     0.149970000000     0          
C22E     C      0.702300000000     0.342670000000     0.120830000000     0          
H15E     H      0.691000000000     0.318200000000     0.119800000000     0          
C23E     C      0.670400000000     0.365350000000     0.093670000000     0          
H16E     H      0.637800000000     0.356300000000     0.073800000000     0          
C24E     C      0.685500000000     0.401360000000     0.095190000000     0          
C25E     C      0.732800000000     0.414280000000     0.123560000000     0          
H17E     H      0.743000000000     0.438900000000     0.124600000000     0          
C26E     C      0.766300000000     0.391840000000     0.150950000000     0          
H18E     H      0.799300000000     0.401200000000     0.170400000000     0          
C27E     C      0.646900000000     0.426420000000     0.067180000000     0          
O4A      O      0.589500000000     0.492480000000     0.617250000000     0          
H1A      H      0.594000000000     0.478800000000     0.637700000000     0          
H2A      H      0.577000000000     0.511200000000     0.630600000000     0          
O5A      O      0.718070000000     0.481210000000     0.551090000000     0          
H3A      H      0.764200000000     0.486900000000     0.557100000000     0          
H4A      H      0.729000000000     0.466200000000     0.533000000000     0          
Zr2M     Zr     0.902100000000     0.008240000000     0.447520000000     0          
Zr2N     Zr     0.902100000000     0.991760000000     0.052480000000     0          
O8       O      0.154850000000     0.958770000000     0.073610000000     0          
O9       O      0.107990000000     0.912790000000     0.039560000000     0          
C1       C      0.417500000000     0.592810000000     0.432280000000     0          
C2       C      0.405600000000     0.622740000000     0.404270000000     0          
C3       C      0.361300000000     0.618990000000     0.371200000000     0          
H5       H      0.335600000000     0.597400000000     0.366800000000     0          
C4       C      0.353700000000     0.646060000000     0.344500000000     0          
H6       H      0.322500000000     0.643000000000     0.321900000000     0          
C5       C      0.391400000000     0.678380000000     0.350060000000     0          
C6       C      0.435200000000     0.682170000000     0.384130000000     0          
H7       H      0.460400000000     0.703800000000     0.389000000000     0          
C7       C      0.442200000000     0.654600000000     0.410950000000     0          
H8       H      0.472200000000     0.657500000000     0.434000000000     0          
C8       C      0.385300000000     0.707840000000     0.321120000000     0          
C9       C      0.320500000000     0.711870000000     0.298150000000     0          
H9       H      0.279900000000     0.695800000000     0.300800000000     0          
C10      C      0.316200000000     0.739470000000     0.271630000000     0          
C11      C      0.250000000000     0.750000000000     0.245110000000     0          
C12      C      0.282800000000     0.781130000000     0.222600000000     0          
C13      C      0.248500000000     0.801780000000     0.194040000000     0          
H10      H      0.199900000000     0.796100000000     0.184500000000     0          
C14      C      0.287400000000     0.831630000000     0.179380000000     0          
C15      C      0.358200000000     0.839240000000     0.194120000000     0          
H11      H      0.384000000000     0.859300000000     0.184100000000     0          
C16      C      0.392600000000     0.818740000000     0.222880000000     0          
H12      H      0.440900000000     0.824600000000     0.232800000000     0          
C17      C      0.354000000000     0.789270000000     0.236790000000     0          
C18      C      0.375600000000     0.763170000000     0.267190000000     0          
C19      C      0.439000000000     0.759450000000     0.290260000000     0          
H13      H      0.479200000000     0.775800000000     0.288000000000     0          
C20      C      0.443200000000     0.731690000000     0.316680000000     0          
H14      H      0.487200000000     0.728900000000     0.332300000000     0          
C21      C      0.251300000000     0.855390000000     0.149970000000     0          
C22      C      0.202300000000     0.842670000000     0.120830000000     0          
H15      H      0.191000000000     0.818200000000     0.119800000000     0          
C23      C      0.170400000000     0.865350000000     0.093670000000     0          
H16      H      0.137800000000     0.856300000000     0.073800000000     0          
C24      C      0.185500000000     0.901360000000     0.095190000000     0          
C25      C      0.232800000000     0.914280000000     0.123560000000     0          
H17      H      0.243000000000     0.938900000000     0.124600000000     0          
C26      C      0.266300000000     0.891840000000     0.150950000000     0          
H18      H      0.299300000000     0.901200000000     0.170400000000     0          
C27      C      0.146900000000     0.926420000000     0.067180000000     0          
O6E      O      0.037860000000     0.901120000000     0.460960000000     0          
O7E      O      0.115340000000     0.935740000000     0.425310000000     0          
C1E      C      0.082500000000     0.907190000000     0.432280000000     0          
C2E      C      0.094400000000     0.877260000000     0.404270000000     0          
C3E      C      0.138700000000     0.881010000000     0.371200000000     0          
H5E      H      0.164400000000     0.902600000000     0.366800000000     0          
C4E      C      0.146300000000     0.853940000000     0.344500000000     0          
H6E      H      0.177500000000     0.857000000000     0.321900000000     0          
C5E      C      0.108600000000     0.821620000000     0.350060000000     0          
C6E      C      0.064800000000     0.817830000000     0.384130000000     0          
H7E      H      0.039600000000     0.796200000000     0.389000000000     0          
C7E      C      0.057800000000     0.845400000000     0.410950000000     0          
H8E      H      0.027800000000     0.842500000000     0.434000000000     0          
C8E      C      0.114700000000     0.792160000000     0.321120000000     0          
C9E      C      0.179500000000     0.788130000000     0.298150000000     0          
H9E      H      0.220100000000     0.804200000000     0.300800000000     0          
C10E     C      0.183800000000     0.760530000000     0.271630000000     0          
C12E     C      0.217200000000     0.718870000000     0.222600000000     0          
C13E     C      0.251500000000     0.698220000000     0.194040000000     0          
H10E     H      0.300100000000     0.703900000000     0.184500000000     0          
C14E     C      0.212600000000     0.668370000000     0.179380000000     0          
C15E     C      0.141800000000     0.660760000000     0.194120000000     0          
H11E     H      0.116000000000     0.640700000000     0.184100000000     0          
C16E     C      0.107400000000     0.681260000000     0.222880000000     0          
H12E     H      0.059100000000     0.675400000000     0.232800000000     0          
C17E     C      0.146000000000     0.710730000000     0.236790000000     0          
C18E     C      0.124400000000     0.736830000000     0.267190000000     0          
C19E     C      0.061000000000     0.740550000000     0.290260000000     0          
H13E     H      0.020800000000     0.724200000000     0.288000000000     0          
C20E     C      0.056800000000     0.768310000000     0.316680000000     0          
H14E     H      0.012800000000     0.771100000000     0.332300000000     0          
C21E     C      0.248700000000     0.644610000000     0.149970000000     0          
C22E     C      0.297700000000     0.657330000000     0.120830000000     0          
H15E     H      0.309000000000     0.681800000000     0.119800000000     0          
C23E     C      0.329600000000     0.634650000000     0.093670000000     0          
H16E     H      0.362200000000     0.643700000000     0.073800000000     0          
C24E     C      0.314500000000     0.598640000000     0.095190000000     0          
C25E     C      0.267200000000     0.585720000000     0.123560000000     0          
H17E     H      0.257000000000     0.561100000000     0.124600000000     0          
C26E     C      0.233700000000     0.608160000000     0.150950000000     0          
H18E     H      0.200700000000     0.598800000000     0.170400000000     0          
C27E     C      0.353100000000     0.573580000000     0.067180000000     0          
Zr2M     Zr     0.097900000000     0.991760000000     0.447520000000     0          
Zr2N     Zr     0.097900000000     0.008240000000     0.052480000000     0          
O4       O      0.410500000000     0.492480000000     0.882750000000     0          
H1       H      0.406000000000     0.478800000000     0.862300000000     0          
H2       H      0.423000000000     0.511200000000     0.869400000000     0          
O5       O      0.281930000000     0.481210000000     0.948910000000     0          
H3       H      0.235800000000     0.486900000000     0.942900000000     0          
H4       H      0.271000000000     0.466200000000     0.967000000000     0          
O8       O      0.845150000000     0.958770000000     0.426390000000     0          
O9       O      0.892010000000     0.912790000000     0.460440000000     0          
C1       C      0.582500000000     0.592810000000     0.067720000000     0          
C2       C      0.594400000000     0.622740000000     0.095730000000     0          
C3       C      0.638700000000     0.618990000000     0.128800000000     0          
H5       H      0.664400000000     0.597400000000     0.133200000000     0          
C4       C      0.646300000000     0.646060000000     0.155500000000     0          
H6       H      0.677500000000     0.643000000000     0.178100000000     0          
C5       C      0.608600000000     0.678380000000     0.149940000000     0          
C6       C      0.564800000000     0.682170000000     0.115870000000     0          
H7       H      0.539600000000     0.703800000000     0.111000000000     0          
C7       C      0.557800000000     0.654600000000     0.089050000000     0          
H8       H      0.527800000000     0.657500000000     0.066000000000     0          
C8       C      0.614700000000     0.707840000000     0.178880000000     0          
C9       C      0.679500000000     0.711870000000     0.201850000000     0          
H9       H      0.720100000000     0.695800000000     0.199200000000     0          
C10      C      0.683800000000     0.739470000000     0.228370000000     0          
C11      C      0.750000000000     0.750000000000     0.254890000000     0          
C12      C      0.717200000000     0.781130000000     0.277400000000     0          
C13      C      0.751500000000     0.801780000000     0.305960000000     0          
H10      H      0.800100000000     0.796100000000     0.315500000000     0          
C14      C      0.712600000000     0.831630000000     0.320620000000     0          
C15      C      0.641800000000     0.839240000000     0.305880000000     0          
H11      H      0.616000000000     0.859300000000     0.315900000000     0          
C16      C      0.607400000000     0.818740000000     0.277120000000     0          
H12      H      0.559100000000     0.824600000000     0.267200000000     0          
C17      C      0.646000000000     0.789270000000     0.263210000000     0          
C18      C      0.624400000000     0.763170000000     0.232810000000     0          
C19      C      0.561000000000     0.759450000000     0.209740000000     0          
H13      H      0.520800000000     0.775800000000     0.212000000000     0          
C20      C      0.556800000000     0.731690000000     0.183320000000     0          
H14      H      0.512800000000     0.728900000000     0.167700000000     0          
C21      C      0.748700000000     0.855390000000     0.350030000000     0          
C22      C      0.797700000000     0.842670000000     0.379170000000     0          
H15      H      0.809000000000     0.818200000000     0.380200000000     0          
C23      C      0.829600000000     0.865350000000     0.406330000000     0          
H16      H      0.862200000000     0.856300000000     0.426200000000     0          
C24      C      0.814500000000     0.901360000000     0.404810000000     0          
C25      C      0.767200000000     0.914280000000     0.376440000000     0          
H17      H      0.757000000000     0.938900000000     0.375400000000     0          
C26      C      0.733700000000     0.891840000000     0.349050000000     0          
H18      H      0.700700000000     0.901200000000     0.329600000000     0          
C27      C      0.853100000000     0.926420000000     0.432820000000     0          
O6E      O      0.962140000000     0.901120000000     0.039040000000     0          
O7E      O      0.884660000000     0.935740000000     0.074690000000     0          
C1E      C      0.917500000000     0.907190000000     0.067720000000     0          
C2E      C      0.905600000000     0.877260000000     0.095730000000     0          
C3E      C      0.861300000000     0.881010000000     0.128800000000     0          
H5E      H      0.835600000000     0.902600000000     0.133200000000     0          
C4E      C      0.853700000000     0.853940000000     0.155500000000     0          
H6E      H      0.822500000000     0.857000000000     0.178100000000     0          
C5E      C      0.891400000000     0.821620000000     0.149940000000     0          
C6E      C      0.935200000000     0.817830000000     0.115870000000     0          
H7E      H      0.960400000000     0.796200000000     0.111000000000     0          
C7E      C      0.942200000000     0.845400000000     0.089050000000     0          
H8E      H      0.972200000000     0.842500000000     0.066000000000     0          
C8E      C      0.885300000000     0.792160000000     0.178880000000     0          
C9E      C      0.820500000000     0.788130000000     0.201850000000     0          
H9E      H      0.779900000000     0.804200000000     0.199200000000     0          
C10E     C      0.816200000000     0.760530000000     0.228370000000     0          
C12E     C      0.782800000000     0.718870000000     0.277400000000     0          
C13E     C      0.748500000000     0.698220000000     0.305960000000     0          
H10E     H      0.699900000000     0.703900000000     0.315500000000     0          
C14E     C      0.787400000000     0.668370000000     0.320620000000     0          
C15E     C      0.858200000000     0.660760000000     0.305880000000     0          
H11E     H      0.884000000000     0.640700000000     0.315900000000     0          
C16E     C      0.892600000000     0.681260000000     0.277120000000     0          
H12E     H      0.940900000000     0.675400000000     0.267200000000     0          
C17E     C      0.854000000000     0.710730000000     0.263210000000     0          
C18E     C      0.875600000000     0.736830000000     0.232810000000     0          
C19E     C      0.939000000000     0.740550000000     0.209740000000     0          
H13E     H      0.979200000000     0.724200000000     0.212000000000     0          
C20E     C      0.943200000000     0.768310000000     0.183320000000     0          
H14E     H      0.987200000000     0.771100000000     0.167700000000     0          
C21E     C      0.751300000000     0.644610000000     0.350030000000     0          
C22E     C      0.702300000000     0.657330000000     0.379170000000     0          
H15E     H      0.691000000000     0.681800000000     0.380200000000     0          
C23E     C      0.670400000000     0.634650000000     0.406330000000     0          
H16E     H      0.637800000000     0.643700000000     0.426200000000     0          
C24E     C      0.685500000000     0.598640000000     0.404810000000     0          
C25E     C      0.732800000000     0.585720000000     0.376440000000     0          
H17E     H      0.743000000000     0.561100000000     0.375400000000     0          
C26E     C      0.766300000000     0.608160000000     0.349050000000     0          
H18E     H      0.799300000000     0.598800000000     0.329600000000     0          
C27E     C      0.646900000000     0.573580000000     0.432820000000     0          
O4A      O      0.589500000000     0.507520000000     0.882750000000     0          
H1A      H      0.594000000000     0.521200000000     0.862300000000     0          
H2A      H      0.577000000000     0.488800000000     0.869400000000     0          
O5A      O      0.718070000000     0.518790000000     0.948910000000     0          
H3A      H      0.764200000000     0.513100000000     0.942900000000     0          
H4A      H      0.729000000000     0.533800000000     0.967000000000     0          
O8       O      0.154850000000     0.041230000000     0.426390000000     0          
O9       O      0.107990000000     0.087210000000     0.460440000000     0          
C1       C      0.417500000000     0.407190000000     0.067720000000     0          
C2       C      0.405600000000     0.377260000000     0.095730000000     0          
C3       C      0.361300000000     0.381010000000     0.128800000000     0          
H5       H      0.335600000000     0.402600000000     0.133200000000     0          
C4       C      0.353700000000     0.353940000000     0.155500000000     0          
H6       H      0.322500000000     0.357000000000     0.178100000000     0          
C5       C      0.391400000000     0.321620000000     0.149940000000     0          
C6       C      0.435200000000     0.317830000000     0.115870000000     0          
H7       H      0.460400000000     0.296200000000     0.111000000000     0          
C7       C      0.442200000000     0.345400000000     0.089050000000     0          
H8       H      0.472200000000     0.342500000000     0.066000000000     0          
C8       C      0.385300000000     0.292160000000     0.178880000000     0          
C9       C      0.320500000000     0.288130000000     0.201850000000     0          
H9       H      0.279900000000     0.304200000000     0.199200000000     0          
C10      C      0.316200000000     0.260530000000     0.228370000000     0          
C11      C      0.250000000000     0.250000000000     0.254890000000     0          
C12      C      0.282800000000     0.218870000000     0.277400000000     0          
C13      C      0.248500000000     0.198220000000     0.305960000000     0          
H10      H      0.199900000000     0.203900000000     0.315500000000     0          
C14      C      0.287400000000     0.168370000000     0.320620000000     0          
C15      C      0.358200000000     0.160760000000     0.305880000000     0          
H11      H      0.384000000000     0.140700000000     0.315900000000     0          
C16      C      0.392600000000     0.181260000000     0.277120000000     0          
H12      H      0.440900000000     0.175400000000     0.267200000000     0          
C17      C      0.354000000000     0.210730000000     0.263210000000     0          
C18      C      0.375600000000     0.236830000000     0.232810000000     0          
C19      C      0.439000000000     0.240550000000     0.209740000000     0          
H13      H      0.479200000000     0.224200000000     0.212000000000     0          
C20      C      0.443200000000     0.268310000000     0.183320000000     0          
H14      H      0.487200000000     0.271100000000     0.167700000000     0          
C21      C      0.251300000000     0.144610000000     0.350030000000     0          
C22      C      0.202300000000     0.157330000000     0.379170000000     0          
H15      H      0.191000000000     0.181800000000     0.380200000000     0          
C23      C      0.170400000000     0.134650000000     0.406330000000     0          
H16      H      0.137800000000     0.143700000000     0.426200000000     0          
C24      C      0.185500000000     0.098640000000     0.404810000000     0          
C25      C      0.232800000000     0.085720000000     0.376440000000     0          
H17      H      0.243000000000     0.061100000000     0.375400000000     0          
C26      C      0.266300000000     0.108160000000     0.349050000000     0          
H18      H      0.299300000000     0.098800000000     0.329600000000     0          
C27      C      0.146900000000     0.073580000000     0.432820000000     0          
O6E      O      0.037860000000     0.098880000000     0.039040000000     0          
O7E      O      0.115340000000     0.064260000000     0.074690000000     0          
C1E      C      0.082500000000     0.092810000000     0.067720000000     0          
C2E      C      0.094400000000     0.122740000000     0.095730000000     0          
C3E      C      0.138700000000     0.118990000000     0.128800000000     0          
H5E      H      0.164400000000     0.097400000000     0.133200000000     0          
C4E      C      0.146300000000     0.146060000000     0.155500000000     0          
H6E      H      0.177500000000     0.143000000000     0.178100000000     0          
C5E      C      0.108600000000     0.178380000000     0.149940000000     0          
C6E      C      0.064800000000     0.182170000000     0.115870000000     0          
H7E      H      0.039600000000     0.203800000000     0.111000000000     0          
C7E      C      0.057800000000     0.154600000000     0.089050000000     0          
H8E      H      0.027800000000     0.157500000000     0.066000000000     0          
C8E      C      0.114700000000     0.207840000000     0.178880000000     0          
C9E      C      0.179500000000     0.211870000000     0.201850000000     0          
H9E      H      0.220100000000     0.195800000000     0.199200000000     0          
C10E     C      0.183800000000     0.239470000000     0.228370000000     0          
C12E     C      0.217200000000     0.281130000000     0.277400000000     0          
C13E     C      0.251500000000     0.301780000000     0.305960000000     0          
H10E     H      0.300100000000     0.296100000000     0.315500000000     0          
C14E     C      0.212600000000     0.331630000000     0.320620000000     0          
C15E     C      0.141800000000     0.339240000000     0.305880000000     0          
H11E     H      0.116000000000     0.359300000000     0.315900000000     0          
C16E     C      0.107400000000     0.318740000000     0.277120000000     0          
H12E     H      0.059100000000     0.324600000000     0.267200000000     0          
C17E     C      0.146000000000     0.289270000000     0.263210000000     0          
C18E     C      0.124400000000     0.263170000000     0.232810000000     0          
C19E     C      0.061000000000     0.259450000000     0.209740000000     0          
H13E     H      0.020800000000     0.275800000000     0.212000000000     0          
C20E     C      0.056800000000     0.231690000000     0.183320000000     0          
H14E     H      0.012800000000     0.228900000000     0.167700000000     0          
C21E     C      0.248700000000     0.355390000000     0.350030000000     0          
C22E     C      0.297700000000     0.342670000000     0.379170000000     0          
H15E     H      0.309000000000     0.318200000000     0.380200000000     0          
C23E     C      0.329600000000     0.365350000000     0.406330000000     0          
H16E     H      0.362200000000     0.356300000000     0.426200000000     0          
C24E     C      0.314500000000     0.401360000000     0.404810000000     0          
C25E     C      0.267200000000     0.414280000000     0.376440000000     0          
H17E     H      0.257000000000     0.438900000000     0.375400000000     0          
C26E     C      0.233700000000     0.391840000000     0.349050000000     0          
H18E     H      0.200700000000     0.401200000000     0.329600000000     0          
C27E     C      0.353100000000     0.426420000000     0.432820000000     0          
O1       O      0.109800000000     0.022880000000     0.500000000000     0          
O2       O      0.087100000000     0.960740000000     0.500000000000     0          
O3       O      0.987750000000     0.968790000000     0.447050000000     0          
O4       O      0.089500000000     0.992480000000     0.382750000000     0          
H1       H      0.094000000000     0.978800000000     0.362300000000     0          
H2       H      0.077000000000     0.011200000000     0.369400000000     0          
O5       O      0.218070000000     0.981210000000     0.448910000000     0          
H3       H      0.264200000000     0.986900000000     0.442900000000     0          
H4       H      0.229000000000     0.966200000000     0.467000000000     0          
O3A      O      0.012250000000     0.031210000000     0.447050000000     0          
O4A      O      0.910500000000     0.007520000000     0.382750000000     0          
H1A      H      0.906000000000     0.021200000000     0.362300000000     0          
H2A      H      0.923000000000     0.988800000000     0.369400000000     0          
O5A      O      0.781930000000     0.018790000000     0.448910000000     0          
H3A      H      0.735800000000     0.013100000000     0.442900000000     0          
H4A      H      0.771000000000     0.033800000000     0.467000000000     0          
O1A      O      0.890200000000     0.977120000000     0.500000000000     0          
O2A      O      0.912900000000     0.039260000000     0.500000000000     0          
O3H      O      0.012250000000     0.031210000000     0.552950000000     0          
O3H      O      0.987750000000     0.968790000000     0.552950000000     0          
O1       O      0.109800000000     0.977120000000     0.000000000000     0          
O2       O      0.087100000000     0.039260000000     0.000000000000     0          
O3       O      0.987750000000     0.031210000000     0.052950000000     0          
O4       O      0.089500000000     0.007520000000     0.117250000000     0          
H1       H      0.094000000000     0.021200000000     0.137700000000     0          
H2       H      0.077000000000     0.988800000000     0.130600000000     0          
O5       O      0.218070000000     0.018790000000     0.051090000000     0          
H3       H      0.264200000000     0.013100000000     0.057100000000     0          
H4       H      0.229000000000     0.033800000000     0.033000000000     0          
O3A      O      0.012250000000     0.968790000000     0.052950000000     0          
O4A      O      0.910500000000     0.992480000000     0.117250000000     0          
H1A      H      0.906000000000     0.978800000000     0.137700000000     0          
H2A      H      0.923000000000     0.011200000000     0.130600000000     0          
O5A      O      0.781930000000     0.981210000000     0.051090000000     0          
H3A      H      0.735800000000     0.986900000000     0.057100000000     0          
H4A      H      0.771000000000     0.966200000000     0.033000000000     0          
O1A      O      0.890200000000     0.022880000000     0.000000000000     0          
O2A      O      0.912900000000     0.960740000000     0.000000000000     0          
O3H      O      0.012250000000     0.968790000000     0.947050000000     0          
O3H      O      0.987750000000     0.031210000000     0.947050000000     0          
O4       O      0.910500000000     0.007520000000     0.617250000000     0          
H1       H      0.906000000000     0.021200000000     0.637700000000     0          
H2       H      0.923000000000     0.988800000000     0.630600000000     0          
O5       O      0.781930000000     0.018790000000     0.551090000000     0          
H3       H      0.735800000000     0.013100000000     0.557100000000     0          
H4       H      0.771000000000     0.033800000000     0.533000000000     0          
O4A      O      0.089500000000     0.992480000000     0.617250000000     0          
H1A      H      0.094000000000     0.978800000000     0.637700000000     0          
H2A      H      0.077000000000     0.011200000000     0.630600000000     0          
O5A      O      0.218070000000     0.981210000000     0.551090000000     0          
H3A      H      0.264200000000     0.986900000000     0.557100000000     0          
H4A      H      0.229000000000     0.966200000000     0.533000000000     0          
O4       O      0.910500000000     0.992480000000     0.882750000000     0          
H1       H      0.906000000000     0.978800000000     0.862300000000     0          
H2       H      0.923000000000     0.011200000000     0.869400000000     0          
O5       O      0.781930000000     0.981210000000     0.948910000000     0          
H3       H      0.735800000000     0.986900000000     0.942900000000     0          
H4       H      0.771000000000     0.966200000000     0.967000000000     0          
O4A      O      0.089500000000     0.007520000000     0.882750000000     0          
H1A      H      0.094000000000     0.021200000000     0.862300000000     0          
H2A      H      0.077000000000     0.988800000000     0.869400000000     0          
O5A      O      0.218070000000     0.018790000000     0.948910000000     0          
H3A      H      0.264200000000     0.013100000000     0.942900000000     0          
H4A      H      0.229000000000     0.033800000000     0.967000000000     0          


