data_BIKMEQ

_audit_creation_method RASPA-1.0
_audit_creation_date 2020-4-3
_audit_author_name 'Rocio Bueno-Perez'

_cell_length_a    30.6044
_cell_length_b    30.6044
_cell_length_c    14.9016
_cell_angle_alpha 90
_cell_angle_beta  90
_cell_angle_gamma 120
_cell_volume      12087.4

_symmetry_cell_setting          trigonal
_symmetry_space_group_name_Hall 'P 1'
_symmetry_space_group_name_H-M  'P 1'
_symmetry_Int_Tables_number     1

_symmetry_equiv_pos_as_xyz 'x,y,z'

loop_
_atom_site_label
_atom_site_type_symbol
_atom_site_fract_x
_atom_site_fract_y
_atom_site_fract_z
_atom_site_charge
Zr1      Zr     0.072850000000     0.016120000000     0.096100000000     0          
O1       O      0.090060000000     0.066350000000     0.214550000000     0          
O2       O      0.035240000000     0.095530000000     0.210220000000     0          
O3       O      0.312400000000     0.528510000000     0.605550000000     0          
O4       O      0.265570000000     0.518780000000     0.728330000000     0          
O6       O      0.015930000000     0.944400000000     0.047030000000     0          
C1       C      0.072490000000     0.093330000000     0.242870000000     0          
C2       C      0.096900000000     0.125300000000     0.323300000000     0          
C3       C      0.097220000000     0.169590000000     0.337300000000     0          
H1       H      0.083300000000     0.181100000000     0.294300000000     0          
C4       C      0.118050000000     0.197700000000     0.414600000000     0          
H2       H      0.119000000000     0.228300000000     0.421800000000     0          
C5       C      0.137330000000     0.180870000000     0.480700000000     0          
C6       C      0.137730000000     0.136670000000     0.465300000000     0          
H3       H      0.151200000000     0.124700000000     0.508300000000     0          
C7       C      0.118120000000     0.109590000000     0.385900000000     0          
H4       H      0.119700000000     0.080400000000     0.375800000000     0          
C8       C      0.156000000000     0.207930000000     0.567500000000     0          
C9       C      0.179730000000     0.260310000000     0.571500000000     0          
H5       H      0.185000000000     0.278500000000     0.518800000000     0          
C10      C      0.195870000000     0.286170000000     0.652800000000     0          
C11      C      0.188200000000     0.258480000000     0.730600000000     0          
H6       H      0.199300000000     0.275100000000     0.785300000000     0          
C12      C      0.164180000000     0.206230000000     0.727800000000     0          
H7       H      0.158600000000     0.188000000000     0.780600000000     0          
C13      C      0.148680000000     0.181370000000     0.647400000000     0          
H8       H      0.133100000000     0.146400000000     0.646000000000     0          
C14      C      0.219220000000     0.341900000000     0.656100000000     0          
C15      C      0.252540000000     0.372290000000     0.592500000000     0          
H9       H      0.261900000000     0.358100000000     0.546400000000     0          
C16      C      0.272880000000     0.424530000000     0.595600000000     0          
H10      H      0.295300000000     0.444700000000     0.551300000000     0          
C17      C      0.260260000000     0.446490000000     0.663040000000     0          
C18      C      0.227310000000     0.416330000000     0.726400000000     0          
H11      H      0.218100000000     0.430400000000     0.772800000000     0          
C19      C      0.207210000000     0.364350000000     0.722600000000     0          
H12      H      0.184800000000     0.344300000000     0.767100000000     0          
C20      C      0.281210000000     0.501830000000     0.665560000000     0          
O5       O      0.000000000000     0.000000000000     0.141700000000     0          
Zr1      Zr     0.983880000000     0.056730000000     0.096100000000     0          
O1       O      0.933650000000     0.023710000000     0.214550000000     0          
O2       O      0.904470000000     0.939710000000     0.210220000000     0          
O3       O      0.471490000000     0.783890000000     0.605550000000     0          
O4       O      0.481220000000     0.746790000000     0.728330000000     0          
O6       O      0.055600000000     0.071530000000     0.047030000000     0          
C1       C      0.906670000000     0.979160000000     0.242870000000     0          
C2       C      0.874700000000     0.971600000000     0.323300000000     0          
C3       C      0.830410000000     0.927630000000     0.337300000000     0          
H1       H      0.818900000000     0.902200000000     0.294300000000     0          
C4       C      0.802300000000     0.920350000000     0.414600000000     0          
H2       H      0.771700000000     0.890700000000     0.421800000000     0          
C5       C      0.819130000000     0.956460000000     0.480700000000     0          
C6       C      0.863330000000     0.001060000000     0.465300000000     0          
H3       H      0.875300000000     0.026500000000     0.508300000000     0          
C7       C      0.890410000000     0.008530000000     0.385900000000     0          
H4       H      0.919600000000     0.039300000000     0.375800000000     0          
C8       C      0.792070000000     0.948070000000     0.567500000000     0          
C9       C      0.739690000000     0.919420000000     0.571500000000     0          
H5       H      0.721500000000     0.906500000000     0.518800000000     0          
C10      C      0.713830000000     0.909700000000     0.652800000000     0          
C11      C      0.741520000000     0.929720000000     0.730600000000     0          
H6       H      0.724900000000     0.924200000000     0.785300000000     0          
C12      C      0.793770000000     0.957950000000     0.727800000000     0          
H7       H      0.812000000000     0.970600000000     0.780600000000     0          
C13      C      0.818630000000     0.967310000000     0.647400000000     0          
H8       H      0.853600000000     0.986700000000     0.646000000000     0          
C14      C      0.658100000000     0.877320000000     0.656100000000     0          
C15      C      0.627710000000     0.880250000000     0.592500000000     0          
H9       H      0.641900000000     0.903800000000     0.546400000000     0          
C16      C      0.575470000000     0.848350000000     0.595600000000     0          
H10      H      0.555300000000     0.850600000000     0.551300000000     0          
C17      C      0.553510000000     0.813770000000     0.663040000000     0          
C18      C      0.583670000000     0.810980000000     0.726400000000     0          
H11      H      0.569600000000     0.787700000000     0.772800000000     0          
C19      C      0.635650000000     0.842860000000     0.722600000000     0          
H12      H      0.655700000000     0.840500000000     0.767100000000     0          
C20      C      0.498170000000     0.779380000000     0.665560000000     0          
Zr1      Zr     0.943270000000     0.927150000000     0.096100000000     0          
O1       O      0.976290000000     0.909940000000     0.214550000000     0          
O2       O      0.060290000000     0.964760000000     0.210220000000     0          
O3       O      0.216110000000     0.687600000000     0.605550000000     0          
O4       O      0.253210000000     0.734430000000     0.728330000000     0          
O6       O      0.928470000000     0.984070000000     0.047030000000     0          
C1       C      0.020840000000     0.927510000000     0.242870000000     0          
C2       C      0.028400000000     0.903100000000     0.323300000000     0          
C3       C      0.072370000000     0.902780000000     0.337300000000     0          
H1       H      0.097800000000     0.916700000000     0.294300000000     0          
C4       C      0.079650000000     0.881950000000     0.414600000000     0          
H2       H      0.109300000000     0.881000000000     0.421800000000     0          
C5       C      0.043540000000     0.862670000000     0.480700000000     0          
C6       C      0.998940000000     0.862270000000     0.465300000000     0          
H3       H      0.973500000000     0.848800000000     0.508300000000     0          
C7       C      0.991470000000     0.881880000000     0.385900000000     0          
H4       H      0.960700000000     0.880300000000     0.375800000000     0          
C8       C      0.051930000000     0.844000000000     0.567500000000     0          
C9       C      0.080580000000     0.820270000000     0.571500000000     0          
H5       H      0.093500000000     0.815000000000     0.518800000000     0          
C10      C      0.090300000000     0.804130000000     0.652800000000     0          
C11      C      0.070280000000     0.811800000000     0.730600000000     0          
H6       H      0.075800000000     0.800700000000     0.785300000000     0          
C12      C      0.042050000000     0.835820000000     0.727800000000     0          
H7       H      0.029400000000     0.841400000000     0.780600000000     0          
C13      C      0.032690000000     0.851320000000     0.647400000000     0          
H8       H      0.013300000000     0.866900000000     0.646000000000     0          
C14      C      0.122680000000     0.780780000000     0.656100000000     0          
C15      C      0.119750000000     0.747460000000     0.592500000000     0          
H9       H      0.096200000000     0.738100000000     0.546400000000     0          
C16      C      0.151650000000     0.727120000000     0.595600000000     0          
H10      H      0.149400000000     0.704700000000     0.551300000000     0          
C17      C      0.186230000000     0.739740000000     0.663040000000     0          
C18      C      0.189020000000     0.772690000000     0.726400000000     0          
H11      H      0.212300000000     0.781900000000     0.772800000000     0          
C19      C      0.157140000000     0.792790000000     0.722600000000     0          
H12      H      0.159500000000     0.815200000000     0.767100000000     0          
C20      C      0.220620000000     0.718790000000     0.665560000000     0          
Zr1      Zr     0.927150000000     0.983880000000     0.903900000000     0          
O1       O      0.909940000000     0.933650000000     0.785450000000     0          
O2       O      0.964760000000     0.904470000000     0.789780000000     0          
O3       O      0.687600000000     0.471490000000     0.394450000000     0          
O4       O      0.734430000000     0.481220000000     0.271670000000     0          
O6       O      0.984070000000     0.055600000000     0.952970000000     0          
C1       C      0.927510000000     0.906670000000     0.757130000000     0          
C2       C      0.903100000000     0.874700000000     0.676700000000     0          
C3       C      0.902780000000     0.830410000000     0.662700000000     0          
H1       H      0.916700000000     0.818900000000     0.705700000000     0          
C4       C      0.881950000000     0.802300000000     0.585400000000     0          
H2       H      0.881000000000     0.771700000000     0.578200000000     0          
C5       C      0.862670000000     0.819130000000     0.519300000000     0          
C6       C      0.862270000000     0.863330000000     0.534700000000     0          
H3       H      0.848800000000     0.875300000000     0.491700000000     0          
C7       C      0.881880000000     0.890410000000     0.614100000000     0          
H4       H      0.880300000000     0.919600000000     0.624200000000     0          
C8       C      0.844000000000     0.792070000000     0.432500000000     0          
C9       C      0.820270000000     0.739690000000     0.428500000000     0          
H5       H      0.815000000000     0.721500000000     0.481200000000     0          
C10      C      0.804130000000     0.713830000000     0.347200000000     0          
C11      C      0.811800000000     0.741520000000     0.269400000000     0          
H6       H      0.800700000000     0.724900000000     0.214700000000     0          
C12      C      0.835820000000     0.793770000000     0.272200000000     0          
H7       H      0.841400000000     0.812000000000     0.219400000000     0          
C13      C      0.851320000000     0.818630000000     0.352600000000     0          
H8       H      0.866900000000     0.853600000000     0.354000000000     0          
C14      C      0.780780000000     0.658100000000     0.343900000000     0          
C15      C      0.747460000000     0.627710000000     0.407500000000     0          
H9       H      0.738100000000     0.641900000000     0.453600000000     0          
C16      C      0.727120000000     0.575470000000     0.404400000000     0          
H10      H      0.704700000000     0.555300000000     0.448700000000     0          
C17      C      0.739740000000     0.553510000000     0.336960000000     0          
C18      C      0.772690000000     0.583670000000     0.273600000000     0          
H11      H      0.781900000000     0.569600000000     0.227200000000     0          
C19      C      0.792790000000     0.635650000000     0.277400000000     0          
H12      H      0.815200000000     0.655700000000     0.232900000000     0          
C20      C      0.718790000000     0.498170000000     0.334440000000     0          
O5       O      0.000000000000     0.000000000000     0.858300000000     0          
Zr1      Zr     0.016120000000     0.943270000000     0.903900000000     0          
O1       O      0.066350000000     0.976290000000     0.785450000000     0          
O2       O      0.095530000000     0.060290000000     0.789780000000     0          
O3       O      0.528510000000     0.216110000000     0.394450000000     0          
O4       O      0.518780000000     0.253210000000     0.271670000000     0          
O6       O      0.944400000000     0.928470000000     0.952970000000     0          
C1       C      0.093330000000     0.020840000000     0.757130000000     0          
C2       C      0.125300000000     0.028400000000     0.676700000000     0          
C3       C      0.169590000000     0.072370000000     0.662700000000     0          
H1       H      0.181100000000     0.097800000000     0.705700000000     0          
C4       C      0.197700000000     0.079650000000     0.585400000000     0          
H2       H      0.228300000000     0.109300000000     0.578200000000     0          
C5       C      0.180870000000     0.043540000000     0.519300000000     0          
C6       C      0.136670000000     0.998940000000     0.534700000000     0          
H3       H      0.124700000000     0.973500000000     0.491700000000     0          
C7       C      0.109590000000     0.991470000000     0.614100000000     0          
H4       H      0.080400000000     0.960700000000     0.624200000000     0          
C8       C      0.207930000000     0.051930000000     0.432500000000     0          
C9       C      0.260310000000     0.080580000000     0.428500000000     0          
H5       H      0.278500000000     0.093500000000     0.481200000000     0          
C10      C      0.286170000000     0.090300000000     0.347200000000     0          
C11      C      0.258480000000     0.070280000000     0.269400000000     0          
H6       H      0.275100000000     0.075800000000     0.214700000000     0          
C12      C      0.206230000000     0.042050000000     0.272200000000     0          
H7       H      0.188000000000     0.029400000000     0.219400000000     0          
C13      C      0.181370000000     0.032690000000     0.352600000000     0          
H8       H      0.146400000000     0.013300000000     0.354000000000     0          
C14      C      0.341900000000     0.122680000000     0.343900000000     0          
C15      C      0.372290000000     0.119750000000     0.407500000000     0          
H9       H      0.358100000000     0.096200000000     0.453600000000     0          
C16      C      0.424530000000     0.151650000000     0.404400000000     0          
H10      H      0.444700000000     0.149400000000     0.448700000000     0          
C17      C      0.446490000000     0.186230000000     0.336960000000     0          
C18      C      0.416330000000     0.189020000000     0.273600000000     0          
H11      H      0.430400000000     0.212300000000     0.227200000000     0          
C19      C      0.364350000000     0.157140000000     0.277400000000     0          
H12      H      0.344300000000     0.159500000000     0.232900000000     0          
C20      C      0.501830000000     0.220620000000     0.334440000000     0          
Zr1      Zr     0.056730000000     0.072850000000     0.903900000000     0          
O1       O      0.023710000000     0.090060000000     0.785450000000     0          
O2       O      0.939710000000     0.035240000000     0.789780000000     0          
O3       O      0.783890000000     0.312400000000     0.394450000000     0          
O4       O      0.746790000000     0.265570000000     0.271670000000     0          
O6       O      0.071530000000     0.015930000000     0.952970000000     0          
C1       C      0.979160000000     0.072490000000     0.757130000000     0          
C2       C      0.971600000000     0.096900000000     0.676700000000     0          
C3       C      0.927630000000     0.097220000000     0.662700000000     0          
H1       H      0.902200000000     0.083300000000     0.705700000000     0          
C4       C      0.920350000000     0.118050000000     0.585400000000     0          
H2       H      0.890700000000     0.119000000000     0.578200000000     0          
C5       C      0.956460000000     0.137330000000     0.519300000000     0          
C6       C      0.001060000000     0.137730000000     0.534700000000     0          
H3       H      0.026500000000     0.151200000000     0.491700000000     0          
C7       C      0.008530000000     0.118120000000     0.614100000000     0          
H4       H      0.039300000000     0.119700000000     0.624200000000     0          
C8       C      0.948070000000     0.156000000000     0.432500000000     0          
C9       C      0.919420000000     0.179730000000     0.428500000000     0          
H5       H      0.906500000000     0.185000000000     0.481200000000     0          
C10      C      0.909700000000     0.195870000000     0.347200000000     0          
C11      C      0.929720000000     0.188200000000     0.269400000000     0          
H6       H      0.924200000000     0.199300000000     0.214700000000     0          
C12      C      0.957950000000     0.164180000000     0.272200000000     0          
H7       H      0.970600000000     0.158600000000     0.219400000000     0          
C13      C      0.967310000000     0.148680000000     0.352600000000     0          
H8       H      0.986700000000     0.133100000000     0.354000000000     0          
C14      C      0.877320000000     0.219220000000     0.343900000000     0          
C15      C      0.880250000000     0.252540000000     0.407500000000     0          
H9       H      0.903800000000     0.261900000000     0.453600000000     0          
C16      C      0.848350000000     0.272880000000     0.404400000000     0          
H10      H      0.850600000000     0.295300000000     0.448700000000     0          
C17      C      0.813770000000     0.260260000000     0.336960000000     0          
C18      C      0.810980000000     0.227310000000     0.273600000000     0          
H11      H      0.787700000000     0.218100000000     0.227200000000     0          
C19      C      0.842860000000     0.207210000000     0.277400000000     0          
H12      H      0.840500000000     0.184800000000     0.232900000000     0          
C20      C      0.779380000000     0.281210000000     0.334440000000     0          
Zr1      Zr     0.739516666667     0.349453333333     0.429433333333     0          
O1       O      0.756726666667     0.399683333333     0.547883333333     0          
O2       O      0.701906666667     0.428863333333     0.543553333333     0          
O3       O      0.979066666667     0.861843333333     0.938883333333     0          
O4       O      0.932236666667     0.852113333333     0.061663333333     0          
O6       O      0.682596666667     0.277733333333     0.380363333333     0          
C1       C      0.739156666667     0.426663333333     0.576203333333     0          
C2       C      0.763566666667     0.458633333333     0.656633333333     0          
C3       C      0.763886666667     0.502923333333     0.670633333333     0          
H1       H      0.749966666667     0.514433333333     0.627633333333     0          
C4       C      0.784716666667     0.531033333333     0.747933333333     0          
H2       H      0.785666666667     0.561633333333     0.755133333333     0          
C5       C      0.803996666667     0.514203333333     0.814033333333     0          
C6       C      0.804396666667     0.470003333333     0.798633333333     0          
H3       H      0.817866666667     0.458033333333     0.841633333333     0          
C7       C      0.784786666667     0.442923333333     0.719233333333     0          
H4       H      0.786366666667     0.413733333333     0.709133333333     0          
C8       C      0.822666666667     0.541263333333     0.900833333333     0          
C9       C      0.846396666667     0.593643333333     0.904833333333     0          
H5       H      0.851666666667     0.611833333333     0.852133333333     0          
C10      C      0.862536666667     0.619503333333     0.986133333333     0          
C11      C      0.854866666667     0.591813333333     0.063933333333     0          
H6       H      0.865966666667     0.608433333333     0.118633333333     0          
C12      C      0.830846666667     0.539563333333     0.061133333333     0          
H7       H      0.825266666667     0.521333333333     0.113933333333     0          
C13      C      0.815346666667     0.514703333333     0.980733333333     0          
H8       H      0.799766666667     0.479733333333     0.979333333333     0          
C14      C      0.885886666667     0.675233333333     0.989433333333     0          
C15      C      0.919206666667     0.705623333333     0.925833333333     0          
H9       H      0.928566666667     0.691433333333     0.879733333333     0          
C16      C      0.939546666667     0.757863333333     0.928933333333     0          
H10      H      0.961966666667     0.778033333333     0.884633333333     0          
C17      C      0.926926666667     0.779823333333     0.996373333333     0          
C18      C      0.893976666667     0.749663333333     0.059733333333     0          
H11      H      0.884766666667     0.763733333333     0.106133333333     0          
C19      C      0.873876666667     0.697683333333     0.055933333333     0          
H12      H      0.851466666667     0.677633333333     0.100433333333     0          
C20      C      0.947876666667     0.835163333333     0.998893333333     0          
O5       O      0.666666666667     0.333333333333     0.475033333333     0          
Zr1      Zr     0.650546666667     0.390063333333     0.429433333333     0          
O1       O      0.600316666667     0.357043333333     0.547883333333     0          
O2       O      0.571136666667     0.273043333333     0.543553333333     0          
O3       O      0.138156666667     0.117223333333     0.938883333333     0          
O4       O      0.147886666667     0.080123333333     0.061663333333     0          
O6       O      0.722266666667     0.404863333333     0.380363333333     0          
C1       C      0.573336666667     0.312493333333     0.576203333333     0          
C2       C      0.541366666667     0.304933333333     0.656633333333     0          
C3       C      0.497076666667     0.260963333333     0.670633333333     0          
H1       H      0.485566666667     0.235533333333     0.627633333333     0          
C4       C      0.468966666667     0.253683333333     0.747933333333     0          
H2       H      0.438366666667     0.224033333333     0.755133333333     0          
C5       C      0.485796666667     0.289793333333     0.814033333333     0          
C6       C      0.529996666667     0.334393333333     0.798633333333     0          
H3       H      0.541966666667     0.359833333333     0.841633333333     0          
C7       C      0.557076666667     0.341863333333     0.719233333333     0          
H4       H      0.586266666667     0.372633333333     0.709133333333     0          
C8       C      0.458736666667     0.281403333333     0.900833333333     0          
C9       C      0.406356666667     0.252753333333     0.904833333333     0          
H5       H      0.388166666667     0.239833333333     0.852133333333     0          
C10      C      0.380496666667     0.243033333333     0.986133333333     0          
C11      C      0.408186666667     0.263053333333     0.063933333333     0          
H6       H      0.391566666667     0.257533333333     0.118633333333     0          
C12      C      0.460436666667     0.291283333333     0.061133333333     0          
H7       H      0.478666666667     0.303933333333     0.113933333333     0          
C13      C      0.485296666667     0.300643333333     0.980733333333     0          
H8       H      0.520266666667     0.320033333333     0.979333333333     0          
C14      C      0.324766666667     0.210653333333     0.989433333333     0          
C15      C      0.294376666667     0.213583333333     0.925833333333     0          
H9       H      0.308566666667     0.237133333333     0.879733333333     0          
C16      C      0.242136666667     0.181683333333     0.928933333333     0          
H10      H      0.221966666667     0.183933333333     0.884633333333     0          
C17      C      0.220176666667     0.147103333333     0.996373333333     0          
C18      C      0.250336666667     0.144313333333     0.059733333333     0          
H11      H      0.236266666667     0.121033333333     0.106133333333     0          
C19      C      0.302316666667     0.176193333333     0.055933333333     0          
H12      H      0.322366666667     0.173833333333     0.100433333333     0          
C20      C      0.164836666667     0.112713333333     0.998893333333     0          
Zr1      Zr     0.609936666667     0.260483333333     0.429433333333     0          
O1       O      0.642956666667     0.243273333333     0.547883333333     0          
O2       O      0.726956666667     0.298093333333     0.543553333333     0          
O3       O      0.882776666667     0.020933333333     0.938883333333     0          
O4       O      0.919876666667     0.067763333333     0.061663333333     0          
O6       O      0.595136666667     0.317403333333     0.380363333333     0          
C1       C      0.687506666667     0.260843333333     0.576203333333     0          
C2       C      0.695066666667     0.236433333333     0.656633333333     0          
C3       C      0.739036666667     0.236113333333     0.670633333333     0          
H1       H      0.764466666667     0.250033333333     0.627633333333     0          
C4       C      0.746316666667     0.215283333333     0.747933333333     0          
H2       H      0.775966666667     0.214333333333     0.755133333333     0          
C5       C      0.710206666667     0.196003333333     0.814033333333     0          
C6       C      0.665606666667     0.195603333333     0.798633333333     0          
H3       H      0.640166666667     0.182133333333     0.841633333333     0          
C7       C      0.658136666667     0.215213333333     0.719233333333     0          
H4       H      0.627366666667     0.213633333333     0.709133333333     0          
C8       C      0.718596666667     0.177333333333     0.900833333333     0          
C9       C      0.747246666667     0.153603333333     0.904833333333     0          
H5       H      0.760166666667     0.148333333333     0.852133333333     0          
C10      C      0.756966666667     0.137463333333     0.986133333333     0          
C11      C      0.736946666667     0.145133333333     0.063933333333     0          
H6       H      0.742466666667     0.134033333333     0.118633333333     0          
C12      C      0.708716666667     0.169153333333     0.061133333333     0          
H7       H      0.696066666667     0.174733333333     0.113933333333     0          
C13      C      0.699356666667     0.184653333333     0.980733333333     0          
H8       H      0.679966666667     0.200233333333     0.979333333333     0          
C14      C      0.789346666667     0.114113333333     0.989433333333     0          
C15      C      0.786416666667     0.080793333333     0.925833333333     0          
H9       H      0.762866666667     0.071433333333     0.879733333333     0          
C16      C      0.818316666667     0.060453333333     0.928933333333     0          
H10      H      0.816066666667     0.038033333333     0.884633333333     0          
C17      C      0.852896666667     0.073073333333     0.996373333333     0          
C18      C      0.855686666667     0.106023333333     0.059733333333     0          
H11      H      0.878966666667     0.115233333333     0.106133333333     0          
C19      C      0.823806666667     0.126123333333     0.055933333333     0          
H12      H      0.826166666667     0.148533333333     0.100433333333     0          
C20      C      0.887286666667     0.052123333333     0.998893333333     0          
Zr1      Zr     0.593816666667     0.317213333333     0.237233333333     0          
O1       O      0.576606666667     0.266983333333     0.118783333333     0          
O2       O      0.631426666667     0.237803333333     0.123113333333     0          
O3       O      0.354266666667     0.804823333333     0.727783333333     0          
O4       O      0.401096666667     0.814553333333     0.605003333333     0          
O6       O      0.650736666667     0.388933333333     0.286303333333     0          
C1       C      0.594176666667     0.240003333333     0.090463333333     0          
C2       C      0.569766666667     0.208033333333     0.010033333333     0          
C3       C      0.569446666667     0.163743333333     0.996033333333     0          
H1       H      0.583366666667     0.152233333333     0.039033333333     0          
C4       C      0.548616666667     0.135633333333     0.918733333333     0          
H2       H      0.547666666667     0.105033333333     0.911533333333     0          
C5       C      0.529336666667     0.152463333333     0.852633333333     0          
C6       C      0.528936666667     0.196663333333     0.868033333333     0          
H3       H      0.515466666667     0.208633333333     0.825033333333     0          
C7       C      0.548546666667     0.223743333333     0.947433333333     0          
H4       H      0.546966666667     0.252933333333     0.957533333333     0          
C8       C      0.510666666667     0.125403333333     0.765833333333     0          
C9       C      0.486936666667     0.073023333333     0.761833333333     0          
H5       H      0.481666666667     0.054833333333     0.814533333333     0          
C10      C      0.470796666667     0.047163333333     0.680533333333     0          
C11      C      0.478466666667     0.074853333333     0.602733333333     0          
H6       H      0.467366666667     0.058233333333     0.548033333333     0          
C12      C      0.502486666667     0.127103333333     0.605533333333     0          
H7       H      0.508066666667     0.145333333333     0.552733333333     0          
C13      C      0.517986666667     0.151963333333     0.685933333333     0          
H8       H      0.533566666667     0.186933333333     0.687333333333     0          
C14      C      0.447446666667     0.991433333333     0.677233333333     0          
C15      C      0.414126666667     0.961043333333     0.740833333333     0          
H9       H      0.404766666667     0.975233333333     0.786933333333     0          
C16      C      0.393786666667     0.908803333333     0.737733333333     0          
H10      H      0.371366666667     0.888633333333     0.782033333333     0          
C17      C      0.406406666667     0.886843333333     0.670293333333     0          
C18      C      0.439356666667     0.917003333333     0.606933333333     0          
H11      H      0.448566666667     0.902933333333     0.560533333333     0          
C19      C      0.459456666667     0.968983333333     0.610733333333     0          
H12      H      0.481866666667     0.989033333333     0.566233333333     0          
C20      C      0.385456666667     0.831503333333     0.667773333333     0          
O5       O      0.666666666667     0.333333333333     0.191633333333     0          
Zr1      Zr     0.682786666667     0.276603333333     0.237233333333     0          
O1       O      0.733016666667     0.309623333333     0.118783333333     0          
O2       O      0.762196666667     0.393623333333     0.123113333333     0          
O3       O      0.195176666667     0.549443333333     0.727783333333     0          
O4       O      0.185446666667     0.586543333333     0.605003333333     0          
O6       O      0.611066666667     0.261803333333     0.286303333333     0          
C1       C      0.759996666667     0.354173333333     0.090463333333     0          
C2       C      0.791966666667     0.361733333333     0.010033333333     0          
C3       C      0.836256666667     0.405703333333     0.996033333333     0          
H1       H      0.847766666667     0.431133333333     0.039033333333     0          
C4       C      0.864366666667     0.412983333333     0.918733333333     0          
H2       H      0.894966666667     0.442633333333     0.911533333333     0          
C5       C      0.847536666667     0.376873333333     0.852633333333     0          
C6       C      0.803336666667     0.332273333333     0.868033333333     0          
H3       H      0.791366666667     0.306833333333     0.825033333333     0          
C7       C      0.776256666667     0.324803333333     0.947433333333     0          
H4       H      0.747066666667     0.294033333333     0.957533333333     0          
C8       C      0.874596666667     0.385263333333     0.765833333333     0          
C9       C      0.926976666667     0.413913333333     0.761833333333     0          
H5       H      0.945166666667     0.426833333333     0.814533333333     0          
C10      C      0.952836666667     0.423633333333     0.680533333333     0          
C11      C      0.925146666667     0.403613333333     0.602733333333     0          
H6       H      0.941766666667     0.409133333333     0.548033333333     0          
C12      C      0.872896666667     0.375383333333     0.605533333333     0          
H7       H      0.854666666667     0.362733333333     0.552733333333     0          
C13      C      0.848036666667     0.366023333333     0.685933333333     0          
H8       H      0.813066666667     0.346633333333     0.687333333333     0          
C14      C      0.008566666667     0.456013333333     0.677233333333     0          
C15      C      0.038956666667     0.453083333333     0.740833333333     0          
H9       H      0.024766666667     0.429533333333     0.786933333333     0          
C16      C      0.091196666667     0.484983333333     0.737733333333     0          
H10      H      0.111366666667     0.482733333333     0.782033333333     0          
C17      C      0.113156666667     0.519563333333     0.670293333333     0          
C18      C      0.082996666667     0.522353333333     0.606933333333     0          
H11      H      0.097066666667     0.545633333333     0.560533333333     0          
C19      C      0.031016666667     0.490473333333     0.610733333333     0          
H12      H      0.010966666667     0.492833333333     0.566233333333     0          
C20      C      0.168496666667     0.553953333333     0.667773333333     0          
Zr1      Zr     0.723396666667     0.406183333333     0.237233333333     0          
O1       O      0.690376666667     0.423393333333     0.118783333333     0          
O2       O      0.606376666667     0.368573333333     0.123113333333     0          
O3       O      0.450556666667     0.645733333333     0.727783333333     0          
O4       O      0.413456666667     0.598903333333     0.605003333333     0          
O6       O      0.738196666667     0.349263333333     0.286303333333     0          
C1       C      0.645826666667     0.405823333333     0.090463333333     0          
C2       C      0.638266666667     0.430233333333     0.010033333333     0          
C3       C      0.594296666667     0.430553333333     0.996033333333     0          
H1       H      0.568866666667     0.416633333333     0.039033333333     0          
C4       C      0.587016666667     0.451383333333     0.918733333333     0          
H2       H      0.557366666667     0.452333333333     0.911533333333     0          
C5       C      0.623126666667     0.470663333333     0.852633333333     0          
C6       C      0.667726666667     0.471063333333     0.868033333333     0          
H3       H      0.693166666667     0.484533333333     0.825033333333     0          
C7       C      0.675196666667     0.451453333333     0.947433333333     0          
H4       H      0.705966666667     0.453033333333     0.957533333333     0          
C8       C      0.614736666667     0.489333333333     0.765833333333     0          
C9       C      0.586086666667     0.513063333333     0.761833333333     0          
H5       H      0.573166666667     0.518333333333     0.814533333333     0          
C10      C      0.576366666667     0.529203333333     0.680533333333     0          
C11      C      0.596386666667     0.521533333333     0.602733333333     0          
H6       H      0.590866666667     0.532633333333     0.548033333333     0          
C12      C      0.624616666667     0.497513333333     0.605533333333     0          
H7       H      0.637266666667     0.491933333333     0.552733333333     0          
C13      C      0.633976666667     0.482013333333     0.685933333333     0          
H8       H      0.653366666667     0.466433333333     0.687333333333     0          
C14      C      0.543986666667     0.552553333333     0.677233333333     0          
C15      C      0.546916666667     0.585873333333     0.740833333333     0          
H9       H      0.570466666667     0.595233333333     0.786933333333     0          
C16      C      0.515016666667     0.606213333333     0.737733333333     0          
H10      H      0.517266666667     0.628633333333     0.782033333333     0          
C17      C      0.480436666667     0.593593333333     0.670293333333     0          
C18      C      0.477646666667     0.560643333333     0.606933333333     0          
H11      H      0.454366666667     0.551433333333     0.560533333333     0          
C19      C      0.509526666667     0.540543333333     0.610733333333     0          
H12      H      0.507166666667     0.518133333333     0.566233333333     0          
C20      C      0.446046666667     0.614543333333     0.667773333333     0          
Zr1      Zr     0.406183333333     0.682786666667     0.762766666667     0          
O1       O      0.423393333333     0.733016666667     0.881216666667     0          
O2       O      0.368573333333     0.762196666667     0.876886666667     0          
O3       O      0.645733333333     0.195176666667     0.272216666667     0          
O4       O      0.598903333333     0.185446666667     0.394996666667     0          
O6       O      0.349263333333     0.611066666667     0.713696666667     0          
C1       C      0.405823333333     0.759996666667     0.909536666667     0          
C2       C      0.430233333333     0.791966666667     0.989966666667     0          
C3       C      0.430553333333     0.836256666667     0.003966666667     0          
H1       H      0.416633333333     0.847766666667     0.960966666667     0          
C4       C      0.451383333333     0.864366666667     0.081266666667     0          
H2       H      0.452333333333     0.894966666667     0.088466666667     0          
C5       C      0.470663333333     0.847536666667     0.147366666667     0          
C6       C      0.471063333333     0.803336666667     0.131966666667     0          
H3       H      0.484533333333     0.791366666667     0.174966666667     0          
C7       C      0.451453333333     0.776256666667     0.052566666667     0          
H4       H      0.453033333333     0.747066666667     0.042466666667     0          
C8       C      0.489333333333     0.874596666667     0.234166666667     0          
C9       C      0.513063333333     0.926976666667     0.238166666667     0          
H5       H      0.518333333333     0.945166666667     0.185466666667     0          
C10      C      0.529203333333     0.952836666667     0.319466666667     0          
C11      C      0.521533333333     0.925146666667     0.397266666667     0          
H6       H      0.532633333333     0.941766666667     0.451966666667     0          
C12      C      0.497513333333     0.872896666667     0.394466666667     0          
H7       H      0.491933333333     0.854666666667     0.447266666667     0          
C13      C      0.482013333333     0.848036666667     0.314066666667     0          
H8       H      0.466433333333     0.813066666667     0.312666666667     0          
C14      C      0.552553333333     0.008566666667     0.322766666667     0          
C15      C      0.585873333333     0.038956666667     0.259166666667     0          
H9       H      0.595233333333     0.024766666667     0.213066666667     0          
C16      C      0.606213333333     0.091196666667     0.262266666667     0          
H10      H      0.628633333333     0.111366666667     0.217966666667     0          
C17      C      0.593593333333     0.113156666667     0.329706666667     0          
C18      C      0.560643333333     0.082996666667     0.393066666667     0          
H11      H      0.551433333333     0.097066666667     0.439466666667     0          
C19      C      0.540543333333     0.031016666667     0.389266666667     0          
H12      H      0.518133333333     0.010966666667     0.433766666667     0          
C20      C      0.614543333333     0.168496666667     0.332226666667     0          
O5       O      0.333333333333     0.666666666667     0.808366666667     0          
Zr1      Zr     0.317213333333     0.723396666667     0.762766666667     0          
O1       O      0.266983333333     0.690376666667     0.881216666667     0          
O2       O      0.237803333333     0.606376666667     0.876886666667     0          
O3       O      0.804823333333     0.450556666667     0.272216666667     0          
O4       O      0.814553333333     0.413456666667     0.394996666667     0          
O6       O      0.388933333333     0.738196666667     0.713696666667     0          
C1       C      0.240003333333     0.645826666667     0.909536666667     0          
C2       C      0.208033333333     0.638266666667     0.989966666667     0          
C3       C      0.163743333333     0.594296666667     0.003966666667     0          
H1       H      0.152233333333     0.568866666667     0.960966666667     0          
C4       C      0.135633333333     0.587016666667     0.081266666667     0          
H2       H      0.105033333333     0.557366666667     0.088466666667     0          
C5       C      0.152463333333     0.623126666667     0.147366666667     0          
C6       C      0.196663333333     0.667726666667     0.131966666667     0          
H3       H      0.208633333333     0.693166666667     0.174966666667     0          
C7       C      0.223743333333     0.675196666667     0.052566666667     0          
H4       H      0.252933333333     0.705966666667     0.042466666667     0          
C8       C      0.125403333333     0.614736666667     0.234166666667     0          
C9       C      0.073023333333     0.586086666667     0.238166666667     0          
H5       H      0.054833333333     0.573166666667     0.185466666667     0          
C10      C      0.047163333333     0.576366666667     0.319466666667     0          
C11      C      0.074853333333     0.596386666667     0.397266666667     0          
H6       H      0.058233333333     0.590866666667     0.451966666667     0          
C12      C      0.127103333333     0.624616666667     0.394466666667     0          
H7       H      0.145333333333     0.637266666667     0.447266666667     0          
C13      C      0.151963333333     0.633976666667     0.314066666667     0          
H8       H      0.186933333333     0.653366666667     0.312666666667     0          
C14      C      0.991433333333     0.543986666667     0.322766666667     0          
C15      C      0.961043333333     0.546916666667     0.259166666667     0          
H9       H      0.975233333333     0.570466666667     0.213066666667     0          
C16      C      0.908803333333     0.515016666667     0.262266666667     0          
H10      H      0.888633333333     0.517266666667     0.217966666667     0          
C17      C      0.886843333333     0.480436666667     0.329706666667     0          
C18      C      0.917003333333     0.477646666667     0.393066666667     0          
H11      H      0.902933333333     0.454366666667     0.439466666667     0          
C19      C      0.968983333333     0.509526666667     0.389266666667     0          
H12      H      0.989033333333     0.507166666667     0.433766666667     0          
C20      C      0.831503333333     0.446046666667     0.332226666667     0          
Zr1      Zr     0.276603333333     0.593816666667     0.762766666667     0          
O1       O      0.309623333333     0.576606666667     0.881216666667     0          
O2       O      0.393623333333     0.631426666667     0.876886666667     0          
O3       O      0.549443333333     0.354266666667     0.272216666667     0          
O4       O      0.586543333333     0.401096666667     0.394996666667     0          
O6       O      0.261803333333     0.650736666667     0.713696666667     0          
C1       C      0.354173333333     0.594176666667     0.909536666667     0          
C2       C      0.361733333333     0.569766666667     0.989966666667     0          
C3       C      0.405703333333     0.569446666667     0.003966666667     0          
H1       H      0.431133333333     0.583366666667     0.960966666667     0          
C4       C      0.412983333333     0.548616666667     0.081266666667     0          
H2       H      0.442633333333     0.547666666667     0.088466666667     0          
C5       C      0.376873333333     0.529336666667     0.147366666667     0          
C6       C      0.332273333333     0.528936666667     0.131966666667     0          
H3       H      0.306833333333     0.515466666667     0.174966666667     0          
C7       C      0.324803333333     0.548546666667     0.052566666667     0          
H4       H      0.294033333333     0.546966666667     0.042466666667     0          
C8       C      0.385263333333     0.510666666667     0.234166666667     0          
C9       C      0.413913333333     0.486936666667     0.238166666667     0          
H5       H      0.426833333333     0.481666666667     0.185466666667     0          
C10      C      0.423633333333     0.470796666667     0.319466666667     0          
C11      C      0.403613333333     0.478466666667     0.397266666667     0          
H6       H      0.409133333333     0.467366666667     0.451966666667     0          
C12      C      0.375383333333     0.502486666667     0.394466666667     0          
H7       H      0.362733333333     0.508066666667     0.447266666667     0          
C13      C      0.366023333333     0.517986666667     0.314066666667     0          
H8       H      0.346633333333     0.533566666667     0.312666666667     0          
C14      C      0.456013333333     0.447446666667     0.322766666667     0          
C15      C      0.453083333333     0.414126666667     0.259166666667     0          
H9       H      0.429533333333     0.404766666667     0.213066666667     0          
C16      C      0.484983333333     0.393786666667     0.262266666667     0          
H10      H      0.482733333333     0.371366666667     0.217966666667     0          
C17      C      0.519563333333     0.406406666667     0.329706666667     0          
C18      C      0.522353333333     0.439356666667     0.393066666667     0          
H11      H      0.545633333333     0.448566666667     0.439466666667     0          
C19      C      0.490473333333     0.459456666667     0.389266666667     0          
H12      H      0.492833333333     0.481866666667     0.433766666667     0          
C20      C      0.553953333333     0.385456666667     0.332226666667     0          
Zr1      Zr     0.260483333333     0.650546666667     0.570566666667     0          
O1       O      0.243273333333     0.600316666667     0.452116666667     0          
O2       O      0.298093333333     0.571136666667     0.456446666667     0          
O3       O      0.020933333333     0.138156666667     0.061116666667     0          
O4       O      0.067763333333     0.147886666667     0.938336666667     0          
O6       O      0.317403333333     0.722266666667     0.619636666667     0          
C1       C      0.260843333333     0.573336666667     0.423796666667     0          
C2       C      0.236433333333     0.541366666667     0.343366666667     0          
C3       C      0.236113333333     0.497076666667     0.329366666667     0          
H1       H      0.250033333333     0.485566666667     0.372366666667     0          
C4       C      0.215283333333     0.468966666667     0.252066666667     0          
H2       H      0.214333333333     0.438366666667     0.244866666667     0          
C5       C      0.196003333333     0.485796666667     0.185966666667     0          
C6       C      0.195603333333     0.529996666667     0.201366666667     0          
H3       H      0.182133333333     0.541966666667     0.158366666667     0          
C7       C      0.215213333333     0.557076666667     0.280766666667     0          
H4       H      0.213633333333     0.586266666667     0.290866666667     0          
C8       C      0.177333333333     0.458736666667     0.099166666667     0          
C9       C      0.153603333333     0.406356666667     0.095166666667     0          
H5       H      0.148333333333     0.388166666667     0.147866666667     0          
C10      C      0.137463333333     0.380496666667     0.013866666667     0          
C11      C      0.145133333333     0.408186666667     0.936066666667     0          
H6       H      0.134033333333     0.391566666667     0.881366666667     0          
C12      C      0.169153333333     0.460436666667     0.938866666667     0          
H7       H      0.174733333333     0.478666666667     0.886066666667     0          
C13      C      0.184653333333     0.485296666667     0.019266666667     0          
H8       H      0.200233333333     0.520266666667     0.020666666667     0          
C14      C      0.114113333333     0.324766666667     0.010566666667     0          
C15      C      0.080793333333     0.294376666667     0.074166666667     0          
H9       H      0.071433333333     0.308566666667     0.120266666667     0          
C16      C      0.060453333333     0.242136666667     0.071066666667     0          
H10      H      0.038033333333     0.221966666667     0.115366666667     0          
C17      C      0.073073333333     0.220176666667     0.003626666667     0          
C18      C      0.106023333333     0.250336666667     0.940266666667     0          
H11      H      0.115233333333     0.236266666667     0.893866666667     0          
C19      C      0.126123333333     0.302316666667     0.944066666667     0          
H12      H      0.148533333333     0.322366666667     0.899566666667     0          
C20      C      0.052123333333     0.164836666667     0.001106666667     0          
O5       O      0.333333333333     0.666666666667     0.524966666667     0          
Zr1      Zr     0.349453333333     0.609936666667     0.570566666667     0          
O1       O      0.399683333333     0.642956666667     0.452116666667     0          
O2       O      0.428863333333     0.726956666667     0.456446666667     0          
O3       O      0.861843333333     0.882776666667     0.061116666667     0          
O4       O      0.852113333333     0.919876666667     0.938336666667     0          
O6       O      0.277733333333     0.595136666667     0.619636666667     0          
C1       C      0.426663333333     0.687506666667     0.423796666667     0          
C2       C      0.458633333333     0.695066666667     0.343366666667     0          
C3       C      0.502923333333     0.739036666667     0.329366666667     0          
H1       H      0.514433333333     0.764466666667     0.372366666667     0          
C4       C      0.531033333333     0.746316666667     0.252066666667     0          
H2       H      0.561633333333     0.775966666667     0.244866666667     0          
C5       C      0.514203333333     0.710206666667     0.185966666667     0          
C6       C      0.470003333333     0.665606666667     0.201366666667     0          
H3       H      0.458033333333     0.640166666667     0.158366666667     0          
C7       C      0.442923333333     0.658136666667     0.280766666667     0          
H4       H      0.413733333333     0.627366666667     0.290866666667     0          
C8       C      0.541263333333     0.718596666667     0.099166666667     0          
C9       C      0.593643333333     0.747246666667     0.095166666667     0          
H5       H      0.611833333333     0.760166666667     0.147866666667     0          
C10      C      0.619503333333     0.756966666667     0.013866666667     0          
C11      C      0.591813333333     0.736946666667     0.936066666667     0          
H6       H      0.608433333333     0.742466666667     0.881366666667     0          
C12      C      0.539563333333     0.708716666667     0.938866666667     0          
H7       H      0.521333333333     0.696066666667     0.886066666667     0          
C13      C      0.514703333333     0.699356666667     0.019266666667     0          
H8       H      0.479733333333     0.679966666667     0.020666666667     0          
C14      C      0.675233333333     0.789346666667     0.010566666667     0          
C15      C      0.705623333333     0.786416666667     0.074166666667     0          
H9       H      0.691433333333     0.762866666667     0.120266666667     0          
C16      C      0.757863333333     0.818316666667     0.071066666667     0          
H10      H      0.778033333333     0.816066666667     0.115366666667     0          
C17      C      0.779823333333     0.852896666667     0.003626666667     0          
C18      C      0.749663333333     0.855686666667     0.940266666667     0          
H11      H      0.763733333333     0.878966666667     0.893866666667     0          
C19      C      0.697683333333     0.823806666667     0.944066666667     0          
H12      H      0.677633333333     0.826166666667     0.899566666667     0          
C20      C      0.835163333333     0.887286666667     0.001106666667     0          
Zr1      Zr     0.390063333333     0.739516666667     0.570566666667     0          
O1       O      0.357043333333     0.756726666667     0.452116666667     0          
O2       O      0.273043333333     0.701906666667     0.456446666667     0          
O3       O      0.117223333333     0.979066666667     0.061116666667     0          
O4       O      0.080123333333     0.932236666667     0.938336666667     0          
O6       O      0.404863333333     0.682596666667     0.619636666667     0          
C1       C      0.312493333333     0.739156666667     0.423796666667     0          
C2       C      0.304933333333     0.763566666667     0.343366666667     0          
C3       C      0.260963333333     0.763886666667     0.329366666667     0          
H1       H      0.235533333333     0.749966666667     0.372366666667     0          
C4       C      0.253683333333     0.784716666667     0.252066666667     0          
H2       H      0.224033333333     0.785666666667     0.244866666667     0          
C5       C      0.289793333333     0.803996666667     0.185966666667     0          
C6       C      0.334393333333     0.804396666667     0.201366666667     0          
H3       H      0.359833333333     0.817866666667     0.158366666667     0          
C7       C      0.341863333333     0.784786666667     0.280766666667     0          
H4       H      0.372633333333     0.786366666667     0.290866666667     0          
C8       C      0.281403333333     0.822666666667     0.099166666667     0          
C9       C      0.252753333333     0.846396666667     0.095166666667     0          
H5       H      0.239833333333     0.851666666667     0.147866666667     0          
C10      C      0.243033333333     0.862536666667     0.013866666667     0          
C11      C      0.263053333333     0.854866666667     0.936066666667     0          
H6       H      0.257533333333     0.865966666667     0.881366666667     0          
C12      C      0.291283333333     0.830846666667     0.938866666667     0          
H7       H      0.303933333333     0.825266666667     0.886066666667     0          
C13      C      0.300643333333     0.815346666667     0.019266666667     0          
H8       H      0.320033333333     0.799766666667     0.020666666667     0          
C14      C      0.210653333333     0.885886666667     0.010566666667     0          
C15      C      0.213583333333     0.919206666667     0.074166666667     0          
H9       H      0.237133333333     0.928566666667     0.120266666667     0          
C16      C      0.181683333333     0.939546666667     0.071066666667     0          
H10      H      0.183933333333     0.961966666667     0.115366666667     0          
C17      C      0.147103333333     0.926926666667     0.003626666667     0          
C18      C      0.144313333333     0.893976666667     0.940266666667     0          
H11      H      0.121033333333     0.884766666667     0.893866666667     0          
C19      C      0.176193333333     0.873876666667     0.944066666667     0          
H12      H      0.173833333333     0.851466666667     0.899566666667     0          
C20      C      0.112713333333     0.947876666667     0.001106666667     0          


