data_BIKNIV

_audit_creation_method RASPA-1.0
_audit_creation_date 2020-4-3
_audit_author_name 'Rocio Bueno-Perez'

_cell_length_a    30.352
_cell_length_b    30.352
_cell_length_c    14.9188
_cell_angle_alpha 90
_cell_angle_beta  90
_cell_angle_gamma 120
_cell_volume      11902.5

_symmetry_cell_setting          trigonal
_symmetry_space_group_name_Hall 'P 1'
_symmetry_space_group_name_H-M  'P 1'
_symmetry_Int_Tables_number     1

_symmetry_equiv_pos_as_xyz 'x,y,z'

loop_
_atom_site_label
_atom_site_type_symbol
_atom_site_fract_x
_atom_site_fract_y
_atom_site_fract_z
_atom_site_charge
Zr1      Zr     0.349140000000     0.609320000000     0.070690000000     0          
O1       O      0.413780000000     0.597900000000     0.104360000000     0          
O2       O      0.451590000000     0.645260000000     0.228320000000     0          
O3       O      0.691230000000     0.424320000000     0.619380000000     0          
O4       O      0.606080000000     0.369440000000     0.623000000000     0          
O6       O      0.349060000000     0.610490000000     0.213500000000     0          
C1       C      0.446900000000     0.614370000000     0.167000000000     0          
C2       C      0.483420000000     0.594780000000     0.167800000000     0          
C3       C      0.639320000000     0.430000000000     0.506600000000     0          
C4       C      0.645950000000     0.406370000000     0.589900000000     0          
C5       C      0.590370000000     0.454710000000     0.415700000000     0          
H1       H      0.561200000000     0.458300000000     0.408600000000     0          
C6       C      0.596400000000     0.433520000000     0.493800000000     0          
H2       H      0.570800000000     0.421400000000     0.538700000000     0          
C7       C      0.626540000000     0.470900000000     0.347300000000     0          
C8       C      0.628200000000     0.497000000000     0.099500000000     0          
H3       H      0.641100000000     0.490700000000     0.046000000000     0          
C9       C      0.618930000000     0.490160000000     0.260400000000     0          
C10      C      0.637320000000     0.481540000000     0.181500000000     0          
H4       H      0.656600000000     0.464700000000     0.183500000000     0          
C11      C      0.590950000000     0.515600000000     0.256300000000     0          
H5       H      0.578800000000     0.522500000000     0.310000000000     0          
C12      C      0.519900000000     0.609400000000     0.233800000000     0          
H6       H      0.522800000000     0.633000000000     0.278400000000     0          
C13      C      0.600000000000     0.521600000000     0.095900000000     0          
H7       H      0.593700000000     0.532200000000     0.039800000000     0          
C14      C      0.580900000000     0.530600000000     0.174200000000     0          
C15      C      0.548300000000     0.554600000000     0.171300000000     0          
C16      C      0.676000000000     0.447300000000     0.440000000000     0          
H8       H      0.706300000000     0.446100000000     0.449400000000     0          
C17      C      0.552400000000     0.589700000000     0.235300000000     0          
H9       H      0.577700000000     0.600200000000     0.280500000000     0          
C18      C      0.669300000000     0.466100000000     0.361000000000     0          
H10      H      0.694100000000     0.475900000000     0.315000000000     0          
C19      C      0.479200000000     0.560200000000     0.104500000000     0          
H11      H      0.454200000000     0.549900000000     0.058800000000     0          
C20      C      0.511500000000     0.540100000000     0.106700000000     0          
H12      H      0.508000000000     0.515900000000     0.062800000000     0          
C21      C      0.548200000000     0.707700000000     0.039300000000     0          
H13      H      0.567100000000     0.721600000000     0.095200000000     0          
H14      H      0.554700000000     0.735700000000     0.998600000000     0          
H15      H      0.511700000000     0.687900000000     0.052400000000     0          
C22      C      0.558700000000     0.623700000000     0.878900000000     0          
C23      C      0.601700000000     0.669800000000     0.034000000000     0          
H16      H      0.616100000000     0.685200000000     0.090100000000     0          
C24      C      0.564400000000     0.675300000000     0.998000000000     0          
C25      C      0.596100000000     0.618000000000     0.915000000000     0          
H17      H      0.606400000000     0.596600000000     0.886900000000     0          
C26      C      0.618800000000     0.642300000000     0.991000000000     0          
H18      H      0.646800000000     0.640200000000     0.014300000000     0          
C27      C      0.543200000000     0.652500000000     0.920400000000     0          
H19      H      0.516900000000     0.656700000000     0.894700000000     0          
C28      C      0.537300000000     0.601300000000     0.795000000000     0          
H20      H      0.552700000000     0.581500000000     0.773600000000     0          
H21      H      0.500500000000     0.578900000000     0.801400000000     0          
H22      H      0.543900000000     0.628100000000     0.751300000000     0          
C29?     C      0.467300000000     0.451700000000     0.497900000000     0          
C30?     C      0.432400000000     0.399300000000     0.495000000000     0          
H23?     H      0.409400000000     0.391700000000     0.444000000000     0          
H24?     H      0.450700000000     0.380600000000     0.489000000000     0          
H25?     H      0.412500000000     0.389000000000     0.550800000000     0          
C31?     C      0.501200000000     0.470400000000     0.560100000000     0          
H26?     H      0.502300000000     0.448500000000     0.604500000000     0          
C32?     C      0.533800000000     0.518300000000     0.562700000000     0          
C33?     C      0.577300000000     0.537000000000     0.620000000000     0          
H27?     H      0.598000000000     0.574000000000     0.614200000000     0          
H28?     H      0.566000000000     0.528300000000     0.682600000000     0          
H29?     H      0.597600000000     0.521400000000     0.603500000000     0          
O5       O      0.333330000000     0.666670000000     0.024900000000     0          
Zr1      Zr     0.390680000000     0.739820000000     0.070690000000     0          
O1       O      0.402100000000     0.815880000000     0.104360000000     0          
O2       O      0.354740000000     0.806330000000     0.228320000000     0          
O3       O      0.575680000000     0.266910000000     0.619380000000     0          
O4       O      0.630560000000     0.236640000000     0.623000000000     0          
O6       O      0.389510000000     0.738570000000     0.213500000000     0          
C1       C      0.385630000000     0.832530000000     0.167000000000     0          
C2       C      0.405220000000     0.888640000000     0.167800000000     0          
C3       C      0.570000000000     0.209320000000     0.506600000000     0          
C4       C      0.593630000000     0.239580000000     0.589900000000     0          
C5       C      0.545290000000     0.135660000000     0.415700000000     0          
H1       H      0.541700000000     0.102900000000     0.408600000000     0          
C6       C      0.566480000000     0.162880000000     0.493800000000     0          
H2       H      0.578600000000     0.149400000000     0.538700000000     0          
C7       C      0.529100000000     0.155640000000     0.347300000000     0          
C8       C      0.503000000000     0.131200000000     0.099500000000     0          
H3       H      0.509300000000     0.150400000000     0.046000000000     0          
C9       C      0.509840000000     0.128770000000     0.260400000000     0          
C10      C      0.518460000000     0.155780000000     0.181500000000     0          
H4       H      0.535300000000     0.191900000000     0.183500000000     0          
C11      C      0.484400000000     0.075350000000     0.256300000000     0          
H5       H      0.477500000000     0.056300000000     0.310000000000     0          
C12      C      0.390600000000     0.910500000000     0.233800000000     0          
H6       H      0.367000000000     0.889800000000     0.278400000000     0          
C13      C      0.478400000000     0.078400000000     0.095900000000     0          
H7       H      0.467800000000     0.061500000000     0.039800000000     0          
C14      C      0.469400000000     0.050300000000     0.174200000000     0          
C15      C      0.445400000000     0.993700000000     0.171300000000     0          
C16      C      0.552700000000     0.228700000000     0.440000000000     0          
H8       H      0.553900000000     0.260200000000     0.449400000000     0          
C17      C      0.410300000000     0.962700000000     0.235300000000     0          
H9       H      0.399800000000     0.977500000000     0.280500000000     0          
C18      C      0.533900000000     0.203200000000     0.361000000000     0          
H10      H      0.524100000000     0.218200000000     0.315000000000     0          
C19      C      0.439800000000     0.919000000000     0.104500000000     0          
H11      H      0.450100000000     0.904300000000     0.058800000000     0          
C20      C      0.459900000000     0.971400000000     0.106700000000     0          
H12      H      0.484100000000     0.992100000000     0.062800000000     0          
C21      C      0.292300000000     0.840500000000     0.039300000000     0          
H13      H      0.278400000000     0.845500000000     0.095200000000     0          
H14      H      0.264300000000     0.819000000000     0.998600000000     0          
H15      H      0.312100000000     0.823800000000     0.052400000000     0          
C22      C      0.376300000000     0.935000000000     0.878900000000     0          
C23      C      0.330200000000     0.931900000000     0.034000000000     0          
H16      H      0.314800000000     0.930900000000     0.090100000000     0          
C24      C      0.324700000000     0.889100000000     0.998000000000     0          
C25      C      0.382000000000     0.978100000000     0.915000000000     0          
H17      H      0.403400000000     0.009800000000     0.886900000000     0          
C26      C      0.357700000000     0.976500000000     0.991000000000     0          
H18      H      0.359800000000     0.006600000000     0.014300000000     0          
C27      C      0.347500000000     0.890700000000     0.920400000000     0          
H19      H      0.343300000000     0.860200000000     0.894700000000     0          
C28      C      0.398700000000     0.936000000000     0.795000000000     0          
H20      H      0.418500000000     0.971200000000     0.773600000000     0          
H21      H      0.421100000000     0.921600000000     0.801400000000     0          
H22      H      0.371900000000     0.915800000000     0.751300000000     0          
C29?     C      0.548300000000     0.015600000000     0.497900000000     0          
C30?     C      0.600700000000     0.033100000000     0.495000000000     0          
H23?     H      0.608300000000     0.017700000000     0.444000000000     0          
H24?     H      0.619400000000     0.070100000000     0.489000000000     0          
H25?     H      0.611000000000     0.023500000000     0.550800000000     0          
C31?     C      0.529600000000     0.030800000000     0.560100000000     0          
H26?     H      0.551500000000     0.053800000000     0.604500000000     0          
C32?     C      0.481700000000     0.015500000000     0.562700000000     0          
C33?     C      0.463000000000     0.040300000000     0.620000000000     0          
H27?     H      0.426000000000     0.024000000000     0.614200000000     0          
H28?     H      0.471700000000     0.037700000000     0.682600000000     0          
H29?     H      0.478600000000     0.076200000000     0.603500000000     0          
Zr1      Zr     0.260180000000     0.650860000000     0.070690000000     0          
O1       O      0.184120000000     0.586220000000     0.104360000000     0          
O2       O      0.193670000000     0.548410000000     0.228320000000     0          
O3       O      0.733090000000     0.308770000000     0.619380000000     0          
O4       O      0.763360000000     0.393920000000     0.623000000000     0          
O6       O      0.261430000000     0.650940000000     0.213500000000     0          
C1       C      0.167470000000     0.553100000000     0.167000000000     0          
C2       C      0.111360000000     0.516580000000     0.167800000000     0          
C3       C      0.790680000000     0.360680000000     0.506600000000     0          
C4       C      0.760420000000     0.354050000000     0.589900000000     0          
C5       C      0.864340000000     0.409630000000     0.415700000000     0          
H1       H      0.897100000000     0.438800000000     0.408600000000     0          
C6       C      0.837120000000     0.403600000000     0.493800000000     0          
H2       H      0.850600000000     0.429200000000     0.538700000000     0          
C7       C      0.844360000000     0.373460000000     0.347300000000     0          
C8       C      0.868800000000     0.371800000000     0.099500000000     0          
H3       H      0.849600000000     0.358900000000     0.046000000000     0          
C9       C      0.871230000000     0.381070000000     0.260400000000     0          
C10      C      0.844220000000     0.362680000000     0.181500000000     0          
H4       H      0.808100000000     0.343400000000     0.183500000000     0          
C11      C      0.924650000000     0.409050000000     0.256300000000     0          
H5       H      0.943700000000     0.421200000000     0.310000000000     0          
C12      C      0.089500000000     0.480100000000     0.233800000000     0          
H6       H      0.110200000000     0.477200000000     0.278400000000     0          
C13      C      0.921600000000     0.400000000000     0.095900000000     0          
H7       H      0.938500000000     0.406300000000     0.039800000000     0          
C14      C      0.949700000000     0.419100000000     0.174200000000     0          
C15      C      0.006300000000     0.451700000000     0.171300000000     0          
C16      C      0.771300000000     0.324000000000     0.440000000000     0          
H8       H      0.739800000000     0.293700000000     0.449400000000     0          
C17      C      0.037300000000     0.447600000000     0.235300000000     0          
H9       H      0.022500000000     0.422300000000     0.280500000000     0          
C18      C      0.796800000000     0.330700000000     0.361000000000     0          
H10      H      0.781800000000     0.305900000000     0.315000000000     0          
C19      C      0.081000000000     0.520800000000     0.104500000000     0          
H11      H      0.095700000000     0.545800000000     0.058800000000     0          
C20      C      0.028600000000     0.488500000000     0.106700000000     0          
H12      H      0.007900000000     0.492000000000     0.062800000000     0          
C21      C      0.159500000000     0.451800000000     0.039300000000     0          
H13      H      0.154500000000     0.432900000000     0.095200000000     0          
H14      H      0.181000000000     0.445300000000     0.998600000000     0          
H15      H      0.176200000000     0.488300000000     0.052400000000     0          
C22      C      0.065000000000     0.441300000000     0.878900000000     0          
C23      C      0.068100000000     0.398300000000     0.034000000000     0          
H16      H      0.069100000000     0.383900000000     0.090100000000     0          
C24      C      0.110900000000     0.435600000000     0.998000000000     0          
C25      C      0.021900000000     0.403900000000     0.915000000000     0          
H17      H      0.990200000000     0.393600000000     0.886900000000     0          
C26      C      0.023500000000     0.381200000000     0.991000000000     0          
H18      H      0.993400000000     0.353200000000     0.014300000000     0          
C27      C      0.109300000000     0.456800000000     0.920400000000     0          
H19      H      0.139800000000     0.483100000000     0.894700000000     0          
C28      C      0.064000000000     0.462700000000     0.795000000000     0          
H20      H      0.028800000000     0.447300000000     0.773600000000     0          
H21      H      0.078400000000     0.499500000000     0.801400000000     0          
H22      H      0.084200000000     0.456100000000     0.751300000000     0          
C29?     C      0.984400000000     0.532700000000     0.497900000000     0          
C30?     C      0.966900000000     0.567600000000     0.495000000000     0          
H23?     H      0.982300000000     0.590600000000     0.444000000000     0          
H24?     H      0.929900000000     0.549300000000     0.489000000000     0          
H25?     H      0.976500000000     0.587500000000     0.550800000000     0          
C31?     C      0.969200000000     0.498800000000     0.560100000000     0          
H26?     H      0.946200000000     0.497700000000     0.604500000000     0          
C32?     C      0.984500000000     0.466200000000     0.562700000000     0          
C33?     C      0.959700000000     0.422700000000     0.620000000000     0          
H27?     H      0.976000000000     0.402000000000     0.614200000000     0          
H28?     H      0.962300000000     0.434000000000     0.682600000000     0          
H29?     H      0.923800000000     0.402400000000     0.603500000000     0          
Zr1      Zr     0.650860000000     0.390680000000     0.929310000000     0          
O1       O      0.586220000000     0.402100000000     0.895640000000     0          
O2       O      0.548410000000     0.354740000000     0.771680000000     0          
O3       O      0.308770000000     0.575680000000     0.380620000000     0          
O4       O      0.393920000000     0.630560000000     0.377000000000     0          
O6       O      0.650940000000     0.389510000000     0.786500000000     0          
C1       C      0.553100000000     0.385630000000     0.833000000000     0          
C2       C      0.516580000000     0.405220000000     0.832200000000     0          
C3       C      0.360680000000     0.570000000000     0.493400000000     0          
C4       C      0.354050000000     0.593630000000     0.410100000000     0          
C5       C      0.409630000000     0.545290000000     0.584300000000     0          
H1       H      0.438800000000     0.541700000000     0.591400000000     0          
C6       C      0.403600000000     0.566480000000     0.506200000000     0          
H2       H      0.429200000000     0.578600000000     0.461300000000     0          
C7       C      0.373460000000     0.529100000000     0.652700000000     0          
C8       C      0.371800000000     0.503000000000     0.900500000000     0          
H3       H      0.358900000000     0.509300000000     0.954000000000     0          
C9       C      0.381070000000     0.509840000000     0.739600000000     0          
C10      C      0.362680000000     0.518460000000     0.818500000000     0          
H4       H      0.343400000000     0.535300000000     0.816500000000     0          
C11      C      0.409050000000     0.484400000000     0.743700000000     0          
H5       H      0.421200000000     0.477500000000     0.690000000000     0          
C12      C      0.480100000000     0.390600000000     0.766200000000     0          
H6       H      0.477200000000     0.367000000000     0.721600000000     0          
C13      C      0.400000000000     0.478400000000     0.904100000000     0          
H7       H      0.406300000000     0.467800000000     0.960200000000     0          
C14      C      0.419100000000     0.469400000000     0.825800000000     0          
C15      C      0.451700000000     0.445400000000     0.828700000000     0          
C16      C      0.324000000000     0.552700000000     0.560000000000     0          
H8       H      0.293700000000     0.553900000000     0.550600000000     0          
C17      C      0.447600000000     0.410300000000     0.764700000000     0          
H9       H      0.422300000000     0.399800000000     0.719500000000     0          
C18      C      0.330700000000     0.533900000000     0.639000000000     0          
H10      H      0.305900000000     0.524100000000     0.685000000000     0          
C19      C      0.520800000000     0.439800000000     0.895500000000     0          
H11      H      0.545800000000     0.450100000000     0.941200000000     0          
C20      C      0.488500000000     0.459900000000     0.893300000000     0          
H12      H      0.492000000000     0.484100000000     0.937200000000     0          
C21      C      0.451800000000     0.292300000000     0.960700000000     0          
H13      H      0.432900000000     0.278400000000     0.904800000000     0          
H14      H      0.445300000000     0.264300000000     0.001400000000     0          
H15      H      0.488300000000     0.312100000000     0.947600000000     0          
C22      C      0.441300000000     0.376300000000     0.121100000000     0          
C23      C      0.398300000000     0.330200000000     0.966000000000     0          
H16      H      0.383900000000     0.314800000000     0.909900000000     0          
C24      C      0.435600000000     0.324700000000     0.002000000000     0          
C25      C      0.403900000000     0.382000000000     0.085000000000     0          
H17      H      0.393600000000     0.403400000000     0.113100000000     0          
C26      C      0.381200000000     0.357700000000     0.009000000000     0          
H18      H      0.353200000000     0.359800000000     0.985700000000     0          
C27      C      0.456800000000     0.347500000000     0.079600000000     0          
H19      H      0.483100000000     0.343300000000     0.105300000000     0          
C28      C      0.462700000000     0.398700000000     0.205000000000     0          
H20      H      0.447300000000     0.418500000000     0.226400000000     0          
H21      H      0.499500000000     0.421100000000     0.198600000000     0          
H22      H      0.456100000000     0.371900000000     0.248700000000     0          
C29?     C      0.532700000000     0.548300000000     0.502100000000     0          
C30?     C      0.567600000000     0.600700000000     0.505000000000     0          
H23?     H      0.590600000000     0.608300000000     0.556000000000     0          
H24?     H      0.549300000000     0.619400000000     0.511000000000     0          
H25?     H      0.587500000000     0.611000000000     0.449200000000     0          
C31?     C      0.498800000000     0.529600000000     0.439900000000     0          
H26?     H      0.497700000000     0.551500000000     0.395500000000     0          
C32?     C      0.466200000000     0.481700000000     0.437300000000     0          
C33?     C      0.422700000000     0.463000000000     0.380000000000     0          
H27?     H      0.402000000000     0.426000000000     0.385800000000     0          
H28?     H      0.434000000000     0.471700000000     0.317400000000     0          
H29?     H      0.402400000000     0.478600000000     0.396500000000     0          
O5       O      0.666670000000     0.333330000000     0.975100000000     0          
Zr1      Zr     0.609320000000     0.260180000000     0.929310000000     0          
O1       O      0.597900000000     0.184120000000     0.895640000000     0          
O2       O      0.645260000000     0.193670000000     0.771680000000     0          
O3       O      0.424320000000     0.733090000000     0.380620000000     0          
O4       O      0.369440000000     0.763360000000     0.377000000000     0          
O6       O      0.610490000000     0.261430000000     0.786500000000     0          
C1       C      0.614370000000     0.167470000000     0.833000000000     0          
C2       C      0.594780000000     0.111360000000     0.832200000000     0          
C3       C      0.430000000000     0.790680000000     0.493400000000     0          
C4       C      0.406370000000     0.760420000000     0.410100000000     0          
C5       C      0.454710000000     0.864340000000     0.584300000000     0          
H1       H      0.458300000000     0.897100000000     0.591400000000     0          
C6       C      0.433520000000     0.837120000000     0.506200000000     0          
H2       H      0.421400000000     0.850600000000     0.461300000000     0          
C7       C      0.470900000000     0.844360000000     0.652700000000     0          
C8       C      0.497000000000     0.868800000000     0.900500000000     0          
H3       H      0.490700000000     0.849600000000     0.954000000000     0          
C9       C      0.490160000000     0.871230000000     0.739600000000     0          
C10      C      0.481540000000     0.844220000000     0.818500000000     0          
H4       H      0.464700000000     0.808100000000     0.816500000000     0          
C11      C      0.515600000000     0.924650000000     0.743700000000     0          
H5       H      0.522500000000     0.943700000000     0.690000000000     0          
C12      C      0.609400000000     0.089500000000     0.766200000000     0          
H6       H      0.633000000000     0.110200000000     0.721600000000     0          
C13      C      0.521600000000     0.921600000000     0.904100000000     0          
H7       H      0.532200000000     0.938500000000     0.960200000000     0          
C14      C      0.530600000000     0.949700000000     0.825800000000     0          
C15      C      0.554600000000     0.006300000000     0.828700000000     0          
C16      C      0.447300000000     0.771300000000     0.560000000000     0          
H8       H      0.446100000000     0.739800000000     0.550600000000     0          
C17      C      0.589700000000     0.037300000000     0.764700000000     0          
H9       H      0.600200000000     0.022500000000     0.719500000000     0          
C18      C      0.466100000000     0.796800000000     0.639000000000     0          
H10      H      0.475900000000     0.781800000000     0.685000000000     0          
C19      C      0.560200000000     0.081000000000     0.895500000000     0          
H11      H      0.549900000000     0.095700000000     0.941200000000     0          
C20      C      0.540100000000     0.028600000000     0.893300000000     0          
H12      H      0.515900000000     0.007900000000     0.937200000000     0          
C21      C      0.707700000000     0.159500000000     0.960700000000     0          
H13      H      0.721600000000     0.154500000000     0.904800000000     0          
H14      H      0.735700000000     0.181000000000     0.001400000000     0          
H15      H      0.687900000000     0.176200000000     0.947600000000     0          
C22      C      0.623700000000     0.065000000000     0.121100000000     0          
C23      C      0.669800000000     0.068100000000     0.966000000000     0          
H16      H      0.685200000000     0.069100000000     0.909900000000     0          
C24      C      0.675300000000     0.110900000000     0.002000000000     0          
C25      C      0.618000000000     0.021900000000     0.085000000000     0          
H17      H      0.596600000000     0.990200000000     0.113100000000     0          
C26      C      0.642300000000     0.023500000000     0.009000000000     0          
H18      H      0.640200000000     0.993400000000     0.985700000000     0          
C27      C      0.652500000000     0.109300000000     0.079600000000     0          
H19      H      0.656700000000     0.139800000000     0.105300000000     0          
C28      C      0.601300000000     0.064000000000     0.205000000000     0          
H20      H      0.581500000000     0.028800000000     0.226400000000     0          
H21      H      0.578900000000     0.078400000000     0.198600000000     0          
H22      H      0.628100000000     0.084200000000     0.248700000000     0          
C29?     C      0.451700000000     0.984400000000     0.502100000000     0          
C30?     C      0.399300000000     0.966900000000     0.505000000000     0          
H23?     H      0.391700000000     0.982300000000     0.556000000000     0          
H24?     H      0.380600000000     0.929900000000     0.511000000000     0          
H25?     H      0.389000000000     0.976500000000     0.449200000000     0          
C31?     C      0.470400000000     0.969200000000     0.439900000000     0          
H26?     H      0.448500000000     0.946200000000     0.395500000000     0          
C32?     C      0.518300000000     0.984500000000     0.437300000000     0          
C33?     C      0.537000000000     0.959700000000     0.380000000000     0          
H27?     H      0.574000000000     0.976000000000     0.385800000000     0          
H28?     H      0.528300000000     0.962300000000     0.317400000000     0          
H29?     H      0.521400000000     0.923800000000     0.396500000000     0          
Zr1      Zr     0.739820000000     0.349140000000     0.929310000000     0          
O1       O      0.815880000000     0.413780000000     0.895640000000     0          
O2       O      0.806330000000     0.451590000000     0.771680000000     0          
O3       O      0.266910000000     0.691230000000     0.380620000000     0          
O4       O      0.236640000000     0.606080000000     0.377000000000     0          
O6       O      0.738570000000     0.349060000000     0.786500000000     0          
C1       C      0.832530000000     0.446900000000     0.833000000000     0          
C2       C      0.888640000000     0.483420000000     0.832200000000     0          
C3       C      0.209320000000     0.639320000000     0.493400000000     0          
C4       C      0.239580000000     0.645950000000     0.410100000000     0          
C5       C      0.135660000000     0.590370000000     0.584300000000     0          
H1       H      0.102900000000     0.561200000000     0.591400000000     0          
C6       C      0.162880000000     0.596400000000     0.506200000000     0          
H2       H      0.149400000000     0.570800000000     0.461300000000     0          
C7       C      0.155640000000     0.626540000000     0.652700000000     0          
C8       C      0.131200000000     0.628200000000     0.900500000000     0          
H3       H      0.150400000000     0.641100000000     0.954000000000     0          
C9       C      0.128770000000     0.618930000000     0.739600000000     0          
C10      C      0.155780000000     0.637320000000     0.818500000000     0          
H4       H      0.191900000000     0.656600000000     0.816500000000     0          
C11      C      0.075350000000     0.590950000000     0.743700000000     0          
H5       H      0.056300000000     0.578800000000     0.690000000000     0          
C12      C      0.910500000000     0.519900000000     0.766200000000     0          
H6       H      0.889800000000     0.522800000000     0.721600000000     0          
C13      C      0.078400000000     0.600000000000     0.904100000000     0          
H7       H      0.061500000000     0.593700000000     0.960200000000     0          
C14      C      0.050300000000     0.580900000000     0.825800000000     0          
C15      C      0.993700000000     0.548300000000     0.828700000000     0          
C16      C      0.228700000000     0.676000000000     0.560000000000     0          
H8       H      0.260200000000     0.706300000000     0.550600000000     0          
C17      C      0.962700000000     0.552400000000     0.764700000000     0          
H9       H      0.977500000000     0.577700000000     0.719500000000     0          
C18      C      0.203200000000     0.669300000000     0.639000000000     0          
H10      H      0.218200000000     0.694100000000     0.685000000000     0          
C19      C      0.919000000000     0.479200000000     0.895500000000     0          
H11      H      0.904300000000     0.454200000000     0.941200000000     0          
C20      C      0.971400000000     0.511500000000     0.893300000000     0          
H12      H      0.992100000000     0.508000000000     0.937200000000     0          
C21      C      0.840500000000     0.548200000000     0.960700000000     0          
H13      H      0.845500000000     0.567100000000     0.904800000000     0          
H14      H      0.819000000000     0.554700000000     0.001400000000     0          
H15      H      0.823800000000     0.511700000000     0.947600000000     0          
C22      C      0.935000000000     0.558700000000     0.121100000000     0          
C23      C      0.931900000000     0.601700000000     0.966000000000     0          
H16      H      0.930900000000     0.616100000000     0.909900000000     0          
C24      C      0.889100000000     0.564400000000     0.002000000000     0          
C25      C      0.978100000000     0.596100000000     0.085000000000     0          
H17      H      0.009800000000     0.606400000000     0.113100000000     0          
C26      C      0.976500000000     0.618800000000     0.009000000000     0          
H18      H      0.006600000000     0.646800000000     0.985700000000     0          
C27      C      0.890700000000     0.543200000000     0.079600000000     0          
H19      H      0.860200000000     0.516900000000     0.105300000000     0          
C28      C      0.936000000000     0.537300000000     0.205000000000     0          
H20      H      0.971200000000     0.552700000000     0.226400000000     0          
H21      H      0.921600000000     0.500500000000     0.198600000000     0          
H22      H      0.915800000000     0.543900000000     0.248700000000     0          
C29?     C      0.015600000000     0.467300000000     0.502100000000     0          
C30?     C      0.033100000000     0.432400000000     0.505000000000     0          
H23?     H      0.017700000000     0.409400000000     0.556000000000     0          
H24?     H      0.070100000000     0.450700000000     0.511000000000     0          
H25?     H      0.023500000000     0.412500000000     0.449200000000     0          
C31?     C      0.030800000000     0.501200000000     0.439900000000     0          
H26?     H      0.053800000000     0.502300000000     0.395500000000     0          
C32?     C      0.015500000000     0.533800000000     0.437300000000     0          
C33?     C      0.040300000000     0.577300000000     0.380000000000     0          
H27?     H      0.024000000000     0.598000000000     0.385800000000     0          
H28?     H      0.037700000000     0.566000000000     0.317400000000     0          
H29?     H      0.076200000000     0.597600000000     0.396500000000     0          
Zr1      Zr     0.015806666667     0.942653333333     0.404023333333     0          
O1       O      0.080446666667     0.931233333333     0.437693333333     0          
O2       O      0.118256666667     0.978593333333     0.561653333333     0          
O3       O      0.357896666667     0.757653333333     0.952713333333     0          
O4       O      0.272746666667     0.702773333333     0.956333333333     0          
O6       O      0.015726666667     0.943823333333     0.546833333333     0          
C1       C      0.113566666667     0.947703333333     0.500333333333     0          
C2       C      0.150086666667     0.928113333333     0.501133333333     0          
C3       C      0.305986666667     0.763333333333     0.839933333333     0          
C4       C      0.312616666667     0.739703333333     0.923233333333     0          
C5       C      0.257036666667     0.788043333333     0.749033333333     0          
H1       H      0.227866666667     0.791633333333     0.741933333333     0          
C6       C      0.263066666667     0.766853333333     0.827133333333     0          
H2       H      0.237466666667     0.754733333333     0.872033333333     0          
C7       C      0.293206666667     0.804233333333     0.680633333333     0          
C8       C      0.294866666667     0.830333333333     0.432833333333     0          
H3       H      0.307766666667     0.824033333333     0.379333333333     0          
C9       C      0.285596666667     0.823493333333     0.593733333333     0          
C10      C      0.303986666667     0.814873333333     0.514833333333     0          
H4       H      0.323266666667     0.798033333333     0.516833333333     0          
C11      C      0.257616666667     0.848933333333     0.589633333333     0          
H5       H      0.245466666667     0.855833333333     0.643333333333     0          
C12      C      0.186566666667     0.942733333333     0.567133333333     0          
H6       H      0.189466666667     0.966333333333     0.611733333333     0          
C13      C      0.266666666667     0.854933333333     0.429233333333     0          
H7       H      0.260366666667     0.865533333333     0.373133333333     0          
C14      C      0.247566666667     0.863933333333     0.507533333333     0          
C15      C      0.214966666667     0.887933333333     0.504633333333     0          
C16      C      0.342666666667     0.780633333333     0.773333333333     0          
H8       H      0.372966666667     0.779433333333     0.782733333333     0          
C17      C      0.219066666667     0.923033333333     0.568633333333     0          
H9       H      0.244366666667     0.933533333333     0.613833333333     0          
C18      C      0.335966666667     0.799433333333     0.694333333333     0          
H10      H      0.360766666667     0.809233333333     0.648333333333     0          
C19      C      0.145866666667     0.893533333333     0.437833333333     0          
H11      H      0.120866666667     0.883233333333     0.392133333333     0          
C20      C      0.178166666667     0.873433333333     0.440033333333     0          
H12      H      0.174666666667     0.849233333333     0.396133333333     0          
C21      C      0.214866666667     0.041033333333     0.372633333333     0          
H13      H      0.233766666667     0.054933333333     0.428533333333     0          
H14      H      0.221366666667     0.069033333333     0.331933333333     0          
H15      H      0.178366666667     0.021233333333     0.385733333333     0          
C22      C      0.225366666667     0.957033333333     0.212233333333     0          
C23      C      0.268366666667     0.003133333333     0.367333333333     0          
H16      H      0.282766666667     0.018533333333     0.423433333333     0          
C24      C      0.231066666667     0.008633333333     0.331333333333     0          
C25      C      0.262766666667     0.951333333333     0.248333333333     0          
H17      H      0.273066666667     0.929933333333     0.220233333333     0          
C26      C      0.285466666667     0.975633333333     0.324333333333     0          
H18      H      0.313466666667     0.973533333333     0.347633333333     0          
C27      C      0.209866666667     0.985833333333     0.253733333333     0          
H19      H      0.183566666667     0.990033333333     0.228033333333     0          
C28      C      0.203966666667     0.934633333333     0.128333333333     0          
H20      H      0.219366666667     0.914833333333     0.106933333333     0          
H21      H      0.167166666667     0.912233333333     0.134733333333     0          
H22      H      0.210566666667     0.961433333333     0.084633333333     0          
C29?     C      0.133966666667     0.785033333333     0.831233333333     0          
C30?     C      0.099066666667     0.732633333333     0.828333333333     0          
H23?     H      0.076066666667     0.725033333333     0.777333333333     0          
H24?     H      0.117366666667     0.713933333333     0.822333333333     0          
H25?     H      0.079166666667     0.722333333333     0.884133333333     0          
C31?     C      0.167866666667     0.803733333333     0.893433333333     0          
H26?     H      0.168966666667     0.781833333333     0.937833333333     0          
C32?     C      0.200466666667     0.851633333333     0.896033333333     0          
C33?     C      0.243966666667     0.870333333333     0.953333333333     0          
H27?     H      0.264666666667     0.907333333333     0.947533333333     0          
H28?     H      0.232666666667     0.861633333333     0.015933333333     0          
H29?     H      0.264266666667     0.854733333333     0.936833333333     0          
O5       O      0.999996666667     0.000003333333     0.358233333333     0          
Zr1      Zr     0.057346666667     0.073153333333     0.404023333333     0          
O1       O      0.068766666667     0.149213333333     0.437693333333     0          
O2       O      0.021406666667     0.139663333333     0.561653333333     0          
O3       O      0.242346666667     0.600243333333     0.952713333333     0          
O4       O      0.297226666667     0.569973333333     0.956333333333     0          
O6       O      0.056176666667     0.071903333333     0.546833333333     0          
C1       C      0.052296666667     0.165863333333     0.500333333333     0          
C2       C      0.071886666667     0.221973333333     0.501133333333     0          
C3       C      0.236666666667     0.542653333333     0.839933333333     0          
C4       C      0.260296666667     0.572913333333     0.923233333333     0          
C5       C      0.211956666667     0.468993333333     0.749033333333     0          
H1       H      0.208366666667     0.436233333333     0.741933333333     0          
C6       C      0.233146666667     0.496213333333     0.827133333333     0          
H2       H      0.245266666667     0.482733333333     0.872033333333     0          
C7       C      0.195766666667     0.488973333333     0.680633333333     0          
C8       C      0.169666666667     0.464533333333     0.432833333333     0          
H3       H      0.175966666667     0.483733333333     0.379333333333     0          
C9       C      0.176506666667     0.462103333333     0.593733333333     0          
C10      C      0.185126666667     0.489113333333     0.514833333333     0          
H4       H      0.201966666667     0.525233333333     0.516833333333     0          
C11      C      0.151066666667     0.408683333333     0.589633333333     0          
H5       H      0.144166666667     0.389633333333     0.643333333333     0          
C12      C      0.057266666667     0.243833333333     0.567133333333     0          
H6       H      0.033666666667     0.223133333333     0.611733333333     0          
C13      C      0.145066666667     0.411733333333     0.429233333333     0          
H7       H      0.134466666667     0.394833333333     0.373133333333     0          
C14      C      0.136066666667     0.383633333333     0.507533333333     0          
C15      C      0.112066666667     0.327033333333     0.504633333333     0          
C16      C      0.219366666667     0.562033333333     0.773333333333     0          
H8       H      0.220566666667     0.593533333333     0.782733333333     0          
C17      C      0.076966666667     0.296033333333     0.568633333333     0          
H9       H      0.066466666667     0.310833333333     0.613833333333     0          
C18      C      0.200566666667     0.536533333333     0.694333333333     0          
H10      H      0.190766666667     0.551533333333     0.648333333333     0          
C19      C      0.106466666667     0.252333333333     0.437833333333     0          
H11      H      0.116766666667     0.237633333333     0.392133333333     0          
C20      C      0.126566666667     0.304733333333     0.440033333333     0          
H12      H      0.150766666667     0.325433333333     0.396133333333     0          
C21      C      0.958966666667     0.173833333333     0.372633333333     0          
H13      H      0.945066666667     0.178833333333     0.428533333333     0          
H14      H      0.930966666667     0.152333333333     0.331933333333     0          
H15      H      0.978766666667     0.157133333333     0.385733333333     0          
C22      C      0.042966666667     0.268333333333     0.212233333333     0          
C23      C      0.996866666667     0.265233333333     0.367333333333     0          
H16      H      0.981466666667     0.264233333333     0.423433333333     0          
C24      C      0.991366666667     0.222433333333     0.331333333333     0          
C25      C      0.048666666667     0.311433333333     0.248333333333     0          
H17      H      0.070066666667     0.343133333333     0.220233333333     0          
C26      C      0.024366666667     0.309833333333     0.324333333333     0          
H18      H      0.026466666667     0.339933333333     0.347633333333     0          
C27      C      0.014166666667     0.224033333333     0.253733333333     0          
H19      H      0.009966666667     0.193533333333     0.228033333333     0          
C28      C      0.065366666667     0.269333333333     0.128333333333     0          
H20      H      0.085166666667     0.304533333333     0.106933333333     0          
H21      H      0.087766666667     0.254933333333     0.134733333333     0          
H22      H      0.038566666667     0.249133333333     0.084633333333     0          
C29?     C      0.214966666667     0.348933333333     0.831233333333     0          
C30?     C      0.267366666667     0.366433333333     0.828333333333     0          
H23?     H      0.274966666667     0.351033333333     0.777333333333     0          
H24?     H      0.286066666667     0.403433333333     0.822333333333     0          
H25?     H      0.277666666667     0.356833333333     0.884133333333     0          
C31?     C      0.196266666667     0.364133333333     0.893433333333     0          
H26?     H      0.218166666667     0.387133333333     0.937833333333     0          
C32?     C      0.148366666667     0.348833333333     0.896033333333     0          
C33?     C      0.129666666667     0.373633333333     0.953333333333     0          
H27?     H      0.092666666667     0.357333333333     0.947533333333     0          
H28?     H      0.138366666667     0.371033333333     0.015933333333     0          
H29?     H      0.145266666667     0.409533333333     0.936833333333     0          
Zr1      Zr     0.926846666667     0.984193333333     0.404023333333     0          
O1       O      0.850786666667     0.919553333333     0.437693333333     0          
O2       O      0.860336666667     0.881743333333     0.561653333333     0          
O3       O      0.399756666667     0.642103333333     0.952713333333     0          
O4       O      0.430026666667     0.727253333333     0.956333333333     0          
O6       O      0.928096666667     0.984273333333     0.546833333333     0          
C1       C      0.834136666667     0.886433333333     0.500333333333     0          
C2       C      0.778026666667     0.849913333333     0.501133333333     0          
C3       C      0.457346666667     0.694013333333     0.839933333333     0          
C4       C      0.427086666667     0.687383333333     0.923233333333     0          
C5       C      0.531006666667     0.742963333333     0.749033333333     0          
H1       H      0.563766666667     0.772133333333     0.741933333333     0          
C6       C      0.503786666667     0.736933333333     0.827133333333     0          
H2       H      0.517266666667     0.762533333333     0.872033333333     0          
C7       C      0.511026666667     0.706793333333     0.680633333333     0          
C8       C      0.535466666667     0.705133333333     0.432833333333     0          
H3       H      0.516266666667     0.692233333333     0.379333333333     0          
C9       C      0.537896666667     0.714403333333     0.593733333333     0          
C10      C      0.510886666667     0.696013333333     0.514833333333     0          
H4       H      0.474766666667     0.676733333333     0.516833333333     0          
C11      C      0.591316666667     0.742383333333     0.589633333333     0          
H5       H      0.610366666667     0.754533333333     0.643333333333     0          
C12      C      0.756166666667     0.813433333333     0.567133333333     0          
H6       H      0.776866666667     0.810533333333     0.611733333333     0          
C13      C      0.588266666667     0.733333333333     0.429233333333     0          
H7       H      0.605166666667     0.739633333333     0.373133333333     0          
C14      C      0.616366666667     0.752433333333     0.507533333333     0          
C15      C      0.672966666667     0.785033333333     0.504633333333     0          
C16      C      0.437966666667     0.657333333333     0.773333333333     0          
H8       H      0.406466666667     0.627033333333     0.782733333333     0          
C17      C      0.703966666667     0.780933333333     0.568633333333     0          
H9       H      0.689166666667     0.755633333333     0.613833333333     0          
C18      C      0.463466666667     0.664033333333     0.694333333333     0          
H10      H      0.448466666667     0.639233333333     0.648333333333     0          
C19      C      0.747666666667     0.854133333333     0.437833333333     0          
H11      H      0.762366666667     0.879133333333     0.392133333333     0          
C20      C      0.695266666667     0.821833333333     0.440033333333     0          
H12      H      0.674566666667     0.825333333333     0.396133333333     0          
C21      C      0.826166666667     0.785133333333     0.372633333333     0          
H13      H      0.821166666667     0.766233333333     0.428533333333     0          
H14      H      0.847666666667     0.778633333333     0.331933333333     0          
H15      H      0.842866666667     0.821633333333     0.385733333333     0          
C22      C      0.731666666667     0.774633333333     0.212233333333     0          
C23      C      0.734766666667     0.731633333333     0.367333333333     0          
H16      H      0.735766666667     0.717233333333     0.423433333333     0          
C24      C      0.777566666667     0.768933333333     0.331333333333     0          
C25      C      0.688566666667     0.737233333333     0.248333333333     0          
H17      H      0.656866666667     0.726933333333     0.220233333333     0          
C26      C      0.690166666667     0.714533333333     0.324333333333     0          
H18      H      0.660066666667     0.686533333333     0.347633333333     0          
C27      C      0.775966666667     0.790133333333     0.253733333333     0          
H19      H      0.806466666667     0.816433333333     0.228033333333     0          
C28      C      0.730666666667     0.796033333333     0.128333333333     0          
H20      H      0.695466666667     0.780633333333     0.106933333333     0          
H21      H      0.745066666667     0.832833333333     0.134733333333     0          
H22      H      0.750866666667     0.789433333333     0.084633333333     0          
C29?     C      0.651066666667     0.866033333333     0.831233333333     0          
C30?     C      0.633566666667     0.900933333333     0.828333333333     0          
H23?     H      0.648966666667     0.923933333333     0.777333333333     0          
H24?     H      0.596566666667     0.882633333333     0.822333333333     0          
H25?     H      0.643166666667     0.920833333333     0.884133333333     0          
C31?     C      0.635866666667     0.832133333333     0.893433333333     0          
H26?     H      0.612866666667     0.831033333333     0.937833333333     0          
C32?     C      0.651166666667     0.799533333333     0.896033333333     0          
C33?     C      0.626366666667     0.756033333333     0.953333333333     0          
H27?     H      0.642666666667     0.735333333333     0.947533333333     0          
H28?     H      0.628966666667     0.767333333333     0.015933333333     0          
H29?     H      0.590466666667     0.735733333333     0.936833333333     0          
Zr1      Zr     0.317526666667     0.724013333333     0.262643333333     0          
O1       O      0.252886666667     0.735433333333     0.228973333333     0          
O2       O      0.215076666667     0.688073333333     0.105013333333     0          
O3       O      0.975436666667     0.909013333333     0.713953333333     0          
O4       O      0.060586666667     0.963893333333     0.710333333333     0          
O6       O      0.317606666667     0.722843333333     0.119833333333     0          
C1       C      0.219766666667     0.718963333333     0.166333333333     0          
C2       C      0.183246666667     0.738553333333     0.165533333333     0          
C3       C      0.027346666667     0.903333333333     0.826733333333     0          
C4       C      0.020716666667     0.926963333333     0.743433333333     0          
C5       C      0.076296666667     0.878623333333     0.917633333333     0          
H1       H      0.105466666667     0.875033333333     0.924733333333     0          
C6       C      0.070266666667     0.899813333333     0.839533333333     0          
H2       H      0.095866666667     0.911933333333     0.794633333333     0          
C7       C      0.040126666667     0.862433333333     0.986033333333     0          
C8       C      0.038466666667     0.836333333333     0.233833333333     0          
H3       H      0.025566666667     0.842633333333     0.287333333333     0          
C9       C      0.047736666667     0.843173333333     0.072933333333     0          
C10      C      0.029346666667     0.851793333333     0.151833333333     0          
H4       H      0.010066666667     0.868633333333     0.149833333333     0          
C11      C      0.075716666667     0.817733333333     0.077033333333     0          
H5       H      0.087866666667     0.810833333333     0.023333333333     0          
C12      C      0.146766666667     0.723933333333     0.099533333333     0          
H6       H      0.143866666667     0.700333333333     0.054933333333     0          
C13      C      0.066666666667     0.811733333333     0.237433333333     0          
H7       H      0.072966666667     0.801133333333     0.293533333333     0          
C14      C      0.085766666667     0.802733333333     0.159133333333     0          
C15      C      0.118366666667     0.778733333333     0.162033333333     0          
C16      C      0.990666666667     0.886033333333     0.893333333333     0          
H8       H      0.960366666667     0.887233333333     0.883933333333     0          
C17      C      0.114266666667     0.743633333333     0.098033333333     0          
H9       H      0.088966666667     0.733133333333     0.052833333333     0          
C18      C      0.997366666667     0.867233333333     0.972333333333     0          
H10      H      0.972566666667     0.857433333333     0.018333333333     0          
C19      C      0.187466666667     0.773133333333     0.228833333333     0          
H11      H      0.212466666667     0.783433333333     0.274533333333     0          
C20      C      0.155166666667     0.793233333333     0.226633333333     0          
H12      H      0.158666666667     0.817433333333     0.270533333333     0          
C21      C      0.118466666667     0.625633333333     0.294033333333     0          
H13      H      0.099566666667     0.611733333333     0.238133333333     0          
H14      H      0.111966666667     0.597633333333     0.334733333333     0          
H15      H      0.154966666667     0.645433333333     0.280933333333     0          
C22      C      0.107966666667     0.709633333333     0.454433333333     0          
C23      C      0.064966666667     0.663533333333     0.299333333333     0          
H16      H      0.050566666667     0.648133333333     0.243233333333     0          
C24      C      0.102266666667     0.658033333333     0.335333333333     0          
C25      C      0.070566666667     0.715333333333     0.418333333333     0          
H17      H      0.060266666667     0.736733333333     0.446433333333     0          
C26      C      0.047866666667     0.691033333333     0.342333333333     0          
H18      H      0.019866666667     0.693133333333     0.319033333333     0          
C27      C      0.123466666667     0.680833333333     0.412933333333     0          
H19      H      0.149766666667     0.676633333333     0.438633333333     0          
C28      C      0.129366666667     0.732033333333     0.538333333333     0          
H20      H      0.113966666667     0.751833333333     0.559733333333     0          
H21      H      0.166166666667     0.754433333333     0.531933333333     0          
H22      H      0.122766666667     0.705233333333     0.582033333333     0          
C29?     C      0.199366666667     0.881633333333     0.835433333333     0          
C30?     C      0.234266666667     0.934033333333     0.838333333333     0          
H23?     H      0.257266666667     0.941633333333     0.889333333333     0          
H24?     H      0.215966666667     0.952733333333     0.844333333333     0          
H25?     H      0.254166666667     0.944333333333     0.782533333333     0          
C31?     C      0.165466666667     0.862933333333     0.773233333333     0          
H26?     H      0.164366666667     0.884833333333     0.728833333333     0          
C32?     C      0.132866666667     0.815033333333     0.770633333333     0          
C33?     C      0.089366666667     0.796333333333     0.713333333333     0          
H27?     H      0.068666666667     0.759333333333     0.719133333333     0          
H28?     H      0.100666666667     0.805033333333     0.650733333333     0          
H29?     H      0.069066666667     0.811933333333     0.729833333333     0          
O5       O      0.333336666667     0.666663333333     0.308433333333     0          
Zr1      Zr     0.275986666667     0.593513333333     0.262643333333     0          
O1       O      0.264566666667     0.517453333333     0.228973333333     0          
O2       O      0.311926666667     0.527003333333     0.105013333333     0          
O3       O      0.090986666667     0.066423333333     0.713953333333     0          
O4       O      0.036106666667     0.096693333333     0.710333333333     0          
O6       O      0.277156666667     0.594763333333     0.119833333333     0          
C1       C      0.281036666667     0.500803333333     0.166333333333     0          
C2       C      0.261446666667     0.444693333333     0.165533333333     0          
C3       C      0.096666666667     0.124013333333     0.826733333333     0          
C4       C      0.073036666667     0.093753333333     0.743433333333     0          
C5       C      0.121376666667     0.197673333333     0.917633333333     0          
H1       H      0.124966666667     0.230433333333     0.924733333333     0          
C6       C      0.100186666667     0.170453333333     0.839533333333     0          
H2       H      0.088066666667     0.183933333333     0.794633333333     0          
C7       C      0.137566666667     0.177693333333     0.986033333333     0          
C8       C      0.163666666667     0.202133333333     0.233833333333     0          
H3       H      0.157366666667     0.182933333333     0.287333333333     0          
C9       C      0.156826666667     0.204563333333     0.072933333333     0          
C10      C      0.148206666667     0.177553333333     0.151833333333     0          
H4       H      0.131366666667     0.141433333333     0.149833333333     0          
C11      C      0.182266666667     0.257983333333     0.077033333333     0          
H5       H      0.189166666667     0.277033333333     0.023333333333     0          
C12      C      0.276066666667     0.422833333333     0.099533333333     0          
H6       H      0.299666666667     0.443533333333     0.054933333333     0          
C13      C      0.188266666667     0.254933333333     0.237433333333     0          
H7       H      0.198866666667     0.271833333333     0.293533333333     0          
C14      C      0.197266666667     0.283033333333     0.159133333333     0          
C15      C      0.221266666667     0.339633333333     0.162033333333     0          
C16      C      0.113966666667     0.104633333333     0.893333333333     0          
H8       H      0.112766666667     0.073133333333     0.883933333333     0          
C17      C      0.256366666667     0.370633333333     0.098033333333     0          
H9       H      0.266866666667     0.355833333333     0.052833333333     0          
C18      C      0.132766666667     0.130133333333     0.972333333333     0          
H10      H      0.142566666667     0.115133333333     0.018333333333     0          
C19      C      0.226866666667     0.414333333333     0.228833333333     0          
H11      H      0.216566666667     0.429033333333     0.274533333333     0          
C20      C      0.206766666667     0.361933333333     0.226633333333     0          
H12      H      0.182566666667     0.341233333333     0.270533333333     0          
C21      C      0.374366666667     0.492833333333     0.294033333333     0          
H13      H      0.388266666667     0.487833333333     0.238133333333     0          
H14      H      0.402366666667     0.514333333333     0.334733333333     0          
H15      H      0.354566666667     0.509533333333     0.280933333333     0          
C22      C      0.290366666667     0.398333333333     0.454433333333     0          
C23      C      0.336466666667     0.401433333333     0.299333333333     0          
H16      H      0.351866666667     0.402433333333     0.243233333333     0          
C24      C      0.341966666667     0.444233333333     0.335333333333     0          
C25      C      0.284666666667     0.355233333333     0.418333333333     0          
H17      H      0.263266666667     0.323533333333     0.446433333333     0          
C26      C      0.308966666667     0.356833333333     0.342333333333     0          
H18      H      0.306866666667     0.326733333333     0.319033333333     0          
C27      C      0.319166666667     0.442633333333     0.412933333333     0          
H19      H      0.323366666667     0.473133333333     0.438633333333     0          
C28      C      0.267966666667     0.397333333333     0.538333333333     0          
H20      H      0.248166666667     0.362133333333     0.559733333333     0          
H21      H      0.245566666667     0.411733333333     0.531933333333     0          
H22      H      0.294766666667     0.417533333333     0.582033333333     0          
C29?     C      0.118366666667     0.317733333333     0.835433333333     0          
C30?     C      0.065966666667     0.300233333333     0.838333333333     0          
H23?     H      0.058366666667     0.315633333333     0.889333333333     0          
H24?     H      0.047266666667     0.263233333333     0.844333333333     0          
H25?     H      0.055666666667     0.309833333333     0.782533333333     0          
C31?     C      0.137066666667     0.302533333333     0.773233333333     0          
H26?     H      0.115166666667     0.279533333333     0.728833333333     0          
C32?     C      0.184966666667     0.317833333333     0.770633333333     0          
C33?     C      0.203666666667     0.293033333333     0.713333333333     0          
H27?     H      0.240666666667     0.309333333333     0.719133333333     0          
H28?     H      0.194966666667     0.295633333333     0.650733333333     0          
H29?     H      0.188066666667     0.257133333333     0.729833333333     0          
Zr1      Zr     0.406486666667     0.682473333333     0.262643333333     0          
O1       O      0.482546666667     0.747113333333     0.228973333333     0          
O2       O      0.472996666667     0.784923333333     0.105013333333     0          
O3       O      0.933576666667     0.024563333333     0.713953333333     0          
O4       O      0.903306666667     0.939413333333     0.710333333333     0          
O6       O      0.405236666667     0.682393333333     0.119833333333     0          
C1       C      0.499196666667     0.780233333333     0.166333333333     0          
C2       C      0.555306666667     0.816753333333     0.165533333333     0          
C3       C      0.875986666667     0.972653333333     0.826733333333     0          
C4       C      0.906246666667     0.979283333333     0.743433333333     0          
C5       C      0.802326666667     0.923703333333     0.917633333333     0          
H1       H      0.769566666667     0.894533333333     0.924733333333     0          
C6       C      0.829546666667     0.929733333333     0.839533333333     0          
H2       H      0.816066666667     0.904133333333     0.794633333333     0          
C7       C      0.822306666667     0.959873333333     0.986033333333     0          
C8       C      0.797866666667     0.961533333333     0.233833333333     0          
H3       H      0.817066666667     0.974433333333     0.287333333333     0          
C9       C      0.795436666667     0.952263333333     0.072933333333     0          
C10      C      0.822446666667     0.970653333333     0.151833333333     0          
H4       H      0.858566666667     0.989933333333     0.149833333333     0          
C11      C      0.742016666667     0.924283333333     0.077033333333     0          
H5       H      0.722966666667     0.912133333333     0.023333333333     0          
C12      C      0.577166666667     0.853233333333     0.099533333333     0          
H6       H      0.556466666667     0.856133333333     0.054933333333     0          
C13      C      0.745066666667     0.933333333333     0.237433333333     0          
H7       H      0.728166666667     0.927033333333     0.293533333333     0          
C14      C      0.716966666667     0.914233333333     0.159133333333     0          
C15      C      0.660366666667     0.881633333333     0.162033333333     0          
C16      C      0.895366666667     0.009333333333     0.893333333333     0          
H8       H      0.926866666667     0.039633333333     0.883933333333     0          
C17      C      0.629366666667     0.885733333333     0.098033333333     0          
H9       H      0.644166666667     0.911033333333     0.052833333333     0          
C18      C      0.869866666667     0.002633333333     0.972333333333     0          
H10      H      0.884866666667     0.027433333333     0.018333333333     0          
C19      C      0.585666666667     0.812533333333     0.228833333333     0          
H11      H      0.570966666667     0.787533333333     0.274533333333     0          
C20      C      0.638066666667     0.844833333333     0.226633333333     0          
H12      H      0.658766666667     0.841333333333     0.270533333333     0          
C21      C      0.507166666667     0.881533333333     0.294033333333     0          
H13      H      0.512166666667     0.900433333333     0.238133333333     0          
H14      H      0.485666666667     0.888033333333     0.334733333333     0          
H15      H      0.490466666667     0.845033333333     0.280933333333     0          
C22      C      0.601666666667     0.892033333333     0.454433333333     0          
C23      C      0.598566666667     0.935033333333     0.299333333333     0          
H16      H      0.597566666667     0.949433333333     0.243233333333     0          
C24      C      0.555766666667     0.897733333333     0.335333333333     0          
C25      C      0.644766666667     0.929433333333     0.418333333333     0          
H17      H      0.676466666667     0.939733333333     0.446433333333     0          
C26      C      0.643166666667     0.952133333333     0.342333333333     0          
H18      H      0.673266666667     0.980133333333     0.319033333333     0          
C27      C      0.557366666667     0.876533333333     0.412933333333     0          
H19      H      0.526866666667     0.850233333333     0.438633333333     0          
C28      C      0.602666666667     0.870633333333     0.538333333333     0          
H20      H      0.637866666667     0.886033333333     0.559733333333     0          
H21      H      0.588266666667     0.833833333333     0.531933333333     0          
H22      H      0.582466666667     0.877233333333     0.582033333333     0          
C29?     C      0.682266666667     0.800633333333     0.835433333333     0          
C30?     C      0.699766666667     0.765733333333     0.838333333333     0          
H23?     H      0.684366666667     0.742733333333     0.889333333333     0          
H24?     H      0.736766666667     0.784033333333     0.844333333333     0          
H25?     H      0.690166666667     0.745833333333     0.782533333333     0          
C31?     C      0.697466666667     0.834533333333     0.773233333333     0          
H26?     H      0.720466666667     0.835633333333     0.728833333333     0          
C32?     C      0.682166666667     0.867133333333     0.770633333333     0          
C33?     C      0.706966666667     0.910633333333     0.713333333333     0          
H27?     H      0.690666666667     0.931333333333     0.719133333333     0          
H28?     H      0.704366666667     0.899333333333     0.650733333333     0          
H29?     H      0.742866666667     0.930933333333     0.729833333333     0          
Zr1      Zr     0.682473333333     0.275986666667     0.737356666667     0          
O1       O      0.747113333333     0.264566666667     0.771026666667     0          
O2       O      0.784923333333     0.311926666667     0.894986666667     0          
O3       O      0.024563333333     0.090986666667     0.286046666667     0          
O4       O      0.939413333333     0.036106666667     0.289666666667     0          
O6       O      0.682393333333     0.277156666667     0.880166666667     0          
C1       C      0.780233333333     0.281036666667     0.833666666667     0          
C2       C      0.816753333333     0.261446666667     0.834466666667     0          
C3       C      0.972653333333     0.096666666667     0.173266666667     0          
C4       C      0.979283333333     0.073036666667     0.256566666667     0          
C5       C      0.923703333333     0.121376666667     0.082366666667     0          
H1       H      0.894533333333     0.124966666667     0.075266666667     0          
C6       C      0.929733333333     0.100186666667     0.160466666667     0          
H2       H      0.904133333333     0.088066666667     0.205366666667     0          
C7       C      0.959873333333     0.137566666667     0.013966666667     0          
C8       C      0.961533333333     0.163666666667     0.766166666667     0          
H3       H      0.974433333333     0.157366666667     0.712666666667     0          
C9       C      0.952263333333     0.156826666667     0.927066666667     0          
C10      C      0.970653333333     0.148206666667     0.848166666667     0          
H4       H      0.989933333333     0.131366666667     0.850166666667     0          
C11      C      0.924283333333     0.182266666667     0.922966666667     0          
H5       H      0.912133333333     0.189166666667     0.976666666667     0          
C12      C      0.853233333333     0.276066666667     0.900466666667     0          
H6       H      0.856133333333     0.299666666667     0.945066666667     0          
C13      C      0.933333333333     0.188266666667     0.762566666667     0          
H7       H      0.927033333333     0.198866666667     0.706466666667     0          
C14      C      0.914233333333     0.197266666667     0.840866666667     0          
C15      C      0.881633333333     0.221266666667     0.837966666667     0          
C16      C      0.009333333333     0.113966666667     0.106666666667     0          
H8       H      0.039633333333     0.112766666667     0.116066666667     0          
C17      C      0.885733333333     0.256366666667     0.901966666667     0          
H9       H      0.911033333333     0.266866666667     0.947166666667     0          
C18      C      0.002633333333     0.132766666667     0.027666666667     0          
H10      H      0.027433333333     0.142566666667     0.981666666667     0          
C19      C      0.812533333333     0.226866666667     0.771166666667     0          
H11      H      0.787533333333     0.216566666667     0.725466666667     0          
C20      C      0.844833333333     0.206766666667     0.773366666667     0          
H12      H      0.841333333333     0.182566666667     0.729466666667     0          
C21      C      0.881533333333     0.374366666667     0.705966666667     0          
H13      H      0.900433333333     0.388266666667     0.761866666667     0          
H14      H      0.888033333333     0.402366666667     0.665266666667     0          
H15      H      0.845033333333     0.354566666667     0.719066666667     0          
C22      C      0.892033333333     0.290366666667     0.545566666667     0          
C23      C      0.935033333333     0.336466666667     0.700666666667     0          
H16      H      0.949433333333     0.351866666667     0.756766666667     0          
C24      C      0.897733333333     0.341966666667     0.664666666667     0          
C25      C      0.929433333333     0.284666666667     0.581666666667     0          
H17      H      0.939733333333     0.263266666667     0.553566666667     0          
C26      C      0.952133333333     0.308966666667     0.657666666667     0          
H18      H      0.980133333333     0.306866666667     0.680966666667     0          
C27      C      0.876533333333     0.319166666667     0.587066666667     0          
H19      H      0.850233333333     0.323366666667     0.561366666667     0          
C28      C      0.870633333333     0.267966666667     0.461666666667     0          
H20      H      0.886033333333     0.248166666667     0.440266666667     0          
H21      H      0.833833333333     0.245566666667     0.468066666667     0          
H22      H      0.877233333333     0.294766666667     0.417966666667     0          
C29?     C      0.800633333333     0.118366666667     0.164566666667     0          
C30?     C      0.765733333333     0.065966666667     0.161666666667     0          
H23?     H      0.742733333333     0.058366666667     0.110666666667     0          
H24?     H      0.784033333333     0.047266666667     0.155666666667     0          
H25?     H      0.745833333333     0.055666666667     0.217466666667     0          
C31?     C      0.834533333333     0.137066666667     0.226766666667     0          
H26?     H      0.835633333333     0.115166666667     0.271166666667     0          
C32?     C      0.867133333333     0.184966666667     0.229366666667     0          
C33?     C      0.910633333333     0.203666666667     0.286666666667     0          
H27?     H      0.931333333333     0.240666666667     0.280866666667     0          
H28?     H      0.899333333333     0.194966666667     0.349266666667     0          
H29?     H      0.930933333333     0.188066666667     0.270166666667     0          
O5       O      0.666663333333     0.333336666667     0.691566666667     0          
Zr1      Zr     0.724013333333     0.406486666667     0.737356666667     0          
O1       O      0.735433333333     0.482546666667     0.771026666667     0          
O2       O      0.688073333333     0.472996666667     0.894986666667     0          
O3       O      0.909013333333     0.933576666667     0.286046666667     0          
O4       O      0.963893333333     0.903306666667     0.289666666667     0          
O6       O      0.722843333333     0.405236666667     0.880166666667     0          
C1       C      0.718963333333     0.499196666667     0.833666666667     0          
C2       C      0.738553333333     0.555306666667     0.834466666667     0          
C3       C      0.903333333333     0.875986666667     0.173266666667     0          
C4       C      0.926963333333     0.906246666667     0.256566666667     0          
C5       C      0.878623333333     0.802326666667     0.082366666667     0          
H1       H      0.875033333333     0.769566666667     0.075266666667     0          
C6       C      0.899813333333     0.829546666667     0.160466666667     0          
H2       H      0.911933333333     0.816066666667     0.205366666667     0          
C7       C      0.862433333333     0.822306666667     0.013966666667     0          
C8       C      0.836333333333     0.797866666667     0.766166666667     0          
H3       H      0.842633333333     0.817066666667     0.712666666667     0          
C9       C      0.843173333333     0.795436666667     0.927066666667     0          
C10      C      0.851793333333     0.822446666667     0.848166666667     0          
H4       H      0.868633333333     0.858566666667     0.850166666667     0          
C11      C      0.817733333333     0.742016666667     0.922966666667     0          
H5       H      0.810833333333     0.722966666667     0.976666666667     0          
C12      C      0.723933333333     0.577166666667     0.900466666667     0          
H6       H      0.700333333333     0.556466666667     0.945066666667     0          
C13      C      0.811733333333     0.745066666667     0.762566666667     0          
H7       H      0.801133333333     0.728166666667     0.706466666667     0          
C14      C      0.802733333333     0.716966666667     0.840866666667     0          
C15      C      0.778733333333     0.660366666667     0.837966666667     0          
C16      C      0.886033333333     0.895366666667     0.106666666667     0          
H8       H      0.887233333333     0.926866666667     0.116066666667     0          
C17      C      0.743633333333     0.629366666667     0.901966666667     0          
H9       H      0.733133333333     0.644166666667     0.947166666667     0          
C18      C      0.867233333333     0.869866666667     0.027666666667     0          
H10      H      0.857433333333     0.884866666667     0.981666666667     0          
C19      C      0.773133333333     0.585666666667     0.771166666667     0          
H11      H      0.783433333333     0.570966666667     0.725466666667     0          
C20      C      0.793233333333     0.638066666667     0.773366666667     0          
H12      H      0.817433333333     0.658766666667     0.729466666667     0          
C21      C      0.625633333333     0.507166666667     0.705966666667     0          
H13      H      0.611733333333     0.512166666667     0.761866666667     0          
H14      H      0.597633333333     0.485666666667     0.665266666667     0          
H15      H      0.645433333333     0.490466666667     0.719066666667     0          
C22      C      0.709633333333     0.601666666667     0.545566666667     0          
C23      C      0.663533333333     0.598566666667     0.700666666667     0          
H16      H      0.648133333333     0.597566666667     0.756766666667     0          
C24      C      0.658033333333     0.555766666667     0.664666666667     0          
C25      C      0.715333333333     0.644766666667     0.581666666667     0          
H17      H      0.736733333333     0.676466666667     0.553566666667     0          
C26      C      0.691033333333     0.643166666667     0.657666666667     0          
H18      H      0.693133333333     0.673266666667     0.680966666667     0          
C27      C      0.680833333333     0.557366666667     0.587066666667     0          
H19      H      0.676633333333     0.526866666667     0.561366666667     0          
C28      C      0.732033333333     0.602666666667     0.461666666667     0          
H20      H      0.751833333333     0.637866666667     0.440266666667     0          
H21      H      0.754433333333     0.588266666667     0.468066666667     0          
H22      H      0.705233333333     0.582466666667     0.417966666667     0          
C29?     C      0.881633333333     0.682266666667     0.164566666667     0          
C30?     C      0.934033333333     0.699766666667     0.161666666667     0          
H23?     H      0.941633333333     0.684366666667     0.110666666667     0          
H24?     H      0.952733333333     0.736766666667     0.155666666667     0          
H25?     H      0.944333333333     0.690166666667     0.217466666667     0          
C31?     C      0.862933333333     0.697466666667     0.226766666667     0          
H26?     H      0.884833333333     0.720466666667     0.271166666667     0          
C32?     C      0.815033333333     0.682166666667     0.229366666667     0          
C33?     C      0.796333333333     0.706966666667     0.286666666667     0          
H27?     H      0.759333333333     0.690666666667     0.280866666667     0          
H28?     H      0.805033333333     0.704366666667     0.349266666667     0          
H29?     H      0.811933333333     0.742866666667     0.270166666667     0          
Zr1      Zr     0.593513333333     0.317526666667     0.737356666667     0          
O1       O      0.517453333333     0.252886666667     0.771026666667     0          
O2       O      0.527003333333     0.215076666667     0.894986666667     0          
O3       O      0.066423333333     0.975436666667     0.286046666667     0          
O4       O      0.096693333333     0.060586666667     0.289666666667     0          
O6       O      0.594763333333     0.317606666667     0.880166666667     0          
C1       C      0.500803333333     0.219766666667     0.833666666667     0          
C2       C      0.444693333333     0.183246666667     0.834466666667     0          
C3       C      0.124013333333     0.027346666667     0.173266666667     0          
C4       C      0.093753333333     0.020716666667     0.256566666667     0          
C5       C      0.197673333333     0.076296666667     0.082366666667     0          
H1       H      0.230433333333     0.105466666667     0.075266666667     0          
C6       C      0.170453333333     0.070266666667     0.160466666667     0          
H2       H      0.183933333333     0.095866666667     0.205366666667     0          
C7       C      0.177693333333     0.040126666667     0.013966666667     0          
C8       C      0.202133333333     0.038466666667     0.766166666667     0          
H3       H      0.182933333333     0.025566666667     0.712666666667     0          
C9       C      0.204563333333     0.047736666667     0.927066666667     0          
C10      C      0.177553333333     0.029346666667     0.848166666667     0          
H4       H      0.141433333333     0.010066666667     0.850166666667     0          
C11      C      0.257983333333     0.075716666667     0.922966666667     0          
H5       H      0.277033333333     0.087866666667     0.976666666667     0          
C12      C      0.422833333333     0.146766666667     0.900466666667     0          
H6       H      0.443533333333     0.143866666667     0.945066666667     0          
C13      C      0.254933333333     0.066666666667     0.762566666667     0          
H7       H      0.271833333333     0.072966666667     0.706466666667     0          
C14      C      0.283033333333     0.085766666667     0.840866666667     0          
C15      C      0.339633333333     0.118366666667     0.837966666667     0          
C16      C      0.104633333333     0.990666666667     0.106666666667     0          
H8       H      0.073133333333     0.960366666667     0.116066666667     0          
C17      C      0.370633333333     0.114266666667     0.901966666667     0          
H9       H      0.355833333333     0.088966666667     0.947166666667     0          
C18      C      0.130133333333     0.997366666667     0.027666666667     0          
H10      H      0.115133333333     0.972566666667     0.981666666667     0          
C19      C      0.414333333333     0.187466666667     0.771166666667     0          
H11      H      0.429033333333     0.212466666667     0.725466666667     0          
C20      C      0.361933333333     0.155166666667     0.773366666667     0          
H12      H      0.341233333333     0.158666666667     0.729466666667     0          
C21      C      0.492833333333     0.118466666667     0.705966666667     0          
H13      H      0.487833333333     0.099566666667     0.761866666667     0          
H14      H      0.514333333333     0.111966666667     0.665266666667     0          
H15      H      0.509533333333     0.154966666667     0.719066666667     0          
C22      C      0.398333333333     0.107966666667     0.545566666667     0          
C23      C      0.401433333333     0.064966666667     0.700666666667     0          
H16      H      0.402433333333     0.050566666667     0.756766666667     0          
C24      C      0.444233333333     0.102266666667     0.664666666667     0          
C25      C      0.355233333333     0.070566666667     0.581666666667     0          
H17      H      0.323533333333     0.060266666667     0.553566666667     0          
C26      C      0.356833333333     0.047866666667     0.657666666667     0          
H18      H      0.326733333333     0.019866666667     0.680966666667     0          
C27      C      0.442633333333     0.123466666667     0.587066666667     0          
H19      H      0.473133333333     0.149766666667     0.561366666667     0          
C28      C      0.397333333333     0.129366666667     0.461666666667     0          
H20      H      0.362133333333     0.113966666667     0.440266666667     0          
H21      H      0.411733333333     0.166166666667     0.468066666667     0          
H22      H      0.417533333333     0.122766666667     0.417966666667     0          
C29?     C      0.317733333333     0.199366666667     0.164566666667     0          
C30?     C      0.300233333333     0.234266666667     0.161666666667     0          
H23?     H      0.315633333333     0.257266666667     0.110666666667     0          
H24?     H      0.263233333333     0.215966666667     0.155666666667     0          
H25?     H      0.309833333333     0.254166666667     0.217466666667     0          
C31?     C      0.302533333333     0.165466666667     0.226766666667     0          
H26?     H      0.279533333333     0.164366666667     0.271166666667     0          
C32?     C      0.317833333333     0.132866666667     0.229366666667     0          
C33?     C      0.293033333333     0.089366666667     0.286666666667     0          
H27?     H      0.309333333333     0.068666666667     0.280866666667     0          
H28?     H      0.295633333333     0.100666666667     0.349266666667     0          
H29?     H      0.257133333333     0.069066666667     0.270166666667     0          
Zr1      Zr     0.984193333333     0.057346666667     0.595976666667     0          
O1       O      0.919553333333     0.068766666667     0.562306666667     0          
O2       O      0.881743333333     0.021406666667     0.438346666667     0          
O3       O      0.642103333333     0.242346666667     0.047286666667     0          
O4       O      0.727253333333     0.297226666667     0.043666666667     0          
O6       O      0.984273333333     0.056176666667     0.453166666667     0          
C1       C      0.886433333333     0.052296666667     0.499666666667     0          
C2       C      0.849913333333     0.071886666667     0.498866666667     0          
C3       C      0.694013333333     0.236666666667     0.160066666667     0          
C4       C      0.687383333333     0.260296666667     0.076766666667     0          
C5       C      0.742963333333     0.211956666667     0.250966666667     0          
H1       H      0.772133333333     0.208366666667     0.258066666667     0          
C6       C      0.736933333333     0.233146666667     0.172866666667     0          
H2       H      0.762533333333     0.245266666667     0.127966666667     0          
C7       C      0.706793333333     0.195766666667     0.319366666667     0          
C8       C      0.705133333333     0.169666666667     0.567166666667     0          
H3       H      0.692233333333     0.175966666667     0.620666666667     0          
C9       C      0.714403333333     0.176506666667     0.406266666667     0          
C10      C      0.696013333333     0.185126666667     0.485166666667     0          
H4       H      0.676733333333     0.201966666667     0.483166666667     0          
C11      C      0.742383333333     0.151066666667     0.410366666667     0          
H5       H      0.754533333333     0.144166666667     0.356666666667     0          
C12      C      0.813433333333     0.057266666667     0.432866666667     0          
H6       H      0.810533333333     0.033666666667     0.388266666667     0          
C13      C      0.733333333333     0.145066666667     0.570766666667     0          
H7       H      0.739633333333     0.134466666667     0.626866666667     0          
C14      C      0.752433333333     0.136066666667     0.492466666667     0          
C15      C      0.785033333333     0.112066666667     0.495366666667     0          
C16      C      0.657333333333     0.219366666667     0.226666666667     0          
H8       H      0.627033333333     0.220566666667     0.217266666667     0          
C17      C      0.780933333333     0.076966666667     0.431366666667     0          
H9       H      0.755633333333     0.066466666667     0.386166666667     0          
C18      C      0.664033333333     0.200566666667     0.305666666667     0          
H10      H      0.639233333333     0.190766666667     0.351666666667     0          
C19      C      0.854133333333     0.106466666667     0.562166666667     0          
H11      H      0.879133333333     0.116766666667     0.607866666667     0          
C20      C      0.821833333333     0.126566666667     0.559966666667     0          
H12      H      0.825333333333     0.150766666667     0.603866666667     0          
C21      C      0.785133333333     0.958966666667     0.627366666667     0          
H13      H      0.766233333333     0.945066666667     0.571466666667     0          
H14      H      0.778633333333     0.930966666667     0.668066666667     0          
H15      H      0.821633333333     0.978766666667     0.614266666667     0          
C22      C      0.774633333333     0.042966666667     0.787766666667     0          
C23      C      0.731633333333     0.996866666667     0.632666666667     0          
H16      H      0.717233333333     0.981466666667     0.576566666667     0          
C24      C      0.768933333333     0.991366666667     0.668666666667     0          
C25      C      0.737233333333     0.048666666667     0.751666666667     0          
H17      H      0.726933333333     0.070066666667     0.779766666667     0          
C26      C      0.714533333333     0.024366666667     0.675666666667     0          
H18      H      0.686533333333     0.026466666667     0.652366666667     0          
C27      C      0.790133333333     0.014166666667     0.746266666667     0          
H19      H      0.816433333333     0.009966666667     0.771966666667     0          
C28      C      0.796033333333     0.065366666667     0.871666666667     0          
H20      H      0.780633333333     0.085166666667     0.893066666667     0          
H21      H      0.832833333333     0.087766666667     0.865266666667     0          
H22      H      0.789433333333     0.038566666667     0.915366666667     0          
C29?     C      0.866033333333     0.214966666667     0.168766666667     0          
C30?     C      0.900933333333     0.267366666667     0.171666666667     0          
H23?     H      0.923933333333     0.274966666667     0.222666666667     0          
H24?     H      0.882633333333     0.286066666667     0.177666666667     0          
H25?     H      0.920833333333     0.277666666667     0.115866666667     0          
C31?     C      0.832133333333     0.196266666667     0.106566666667     0          
H26?     H      0.831033333333     0.218166666667     0.062166666667     0          
C32?     C      0.799533333333     0.148366666667     0.103966666667     0          
C33?     C      0.756033333333     0.129666666667     0.046666666667     0          
H27?     H      0.735333333333     0.092666666667     0.052466666667     0          
H28?     H      0.767333333333     0.138366666667     0.984066666667     0          
H29?     H      0.735733333333     0.145266666667     0.063166666667     0          
O5       O      0.000003333333     0.999996666667     0.641766666667     0          
Zr1      Zr     0.942653333333     0.926846666667     0.595976666667     0          
O1       O      0.931233333333     0.850786666667     0.562306666667     0          
O2       O      0.978593333333     0.860336666667     0.438346666667     0          
O3       O      0.757653333333     0.399756666667     0.047286666667     0          
O4       O      0.702773333333     0.430026666667     0.043666666667     0          
O6       O      0.943823333333     0.928096666667     0.453166666667     0          
C1       C      0.947703333333     0.834136666667     0.499666666667     0          
C2       C      0.928113333333     0.778026666667     0.498866666667     0          
C3       C      0.763333333333     0.457346666667     0.160066666667     0          
C4       C      0.739703333333     0.427086666667     0.076766666667     0          
C5       C      0.788043333333     0.531006666667     0.250966666667     0          
H1       H      0.791633333333     0.563766666667     0.258066666667     0          
C6       C      0.766853333333     0.503786666667     0.172866666667     0          
H2       H      0.754733333333     0.517266666667     0.127966666667     0          
C7       C      0.804233333333     0.511026666667     0.319366666667     0          
C8       C      0.830333333333     0.535466666667     0.567166666667     0          
H3       H      0.824033333333     0.516266666667     0.620666666667     0          
C9       C      0.823493333333     0.537896666667     0.406266666667     0          
C10      C      0.814873333333     0.510886666667     0.485166666667     0          
H4       H      0.798033333333     0.474766666667     0.483166666667     0          
C11      C      0.848933333333     0.591316666667     0.410366666667     0          
H5       H      0.855833333333     0.610366666667     0.356666666667     0          
C12      C      0.942733333333     0.756166666667     0.432866666667     0          
H6       H      0.966333333333     0.776866666667     0.388266666667     0          
C13      C      0.854933333333     0.588266666667     0.570766666667     0          
H7       H      0.865533333333     0.605166666667     0.626866666667     0          
C14      C      0.863933333333     0.616366666667     0.492466666667     0          
C15      C      0.887933333333     0.672966666667     0.495366666667     0          
C16      C      0.780633333333     0.437966666667     0.226666666667     0          
H8       H      0.779433333333     0.406466666667     0.217266666667     0          
C17      C      0.923033333333     0.703966666667     0.431366666667     0          
H9       H      0.933533333333     0.689166666667     0.386166666667     0          
C18      C      0.799433333333     0.463466666667     0.305666666667     0          
H10      H      0.809233333333     0.448466666667     0.351666666667     0          
C19      C      0.893533333333     0.747666666667     0.562166666667     0          
H11      H      0.883233333333     0.762366666667     0.607866666667     0          
C20      C      0.873433333333     0.695266666667     0.559966666667     0          
H12      H      0.849233333333     0.674566666667     0.603866666667     0          
C21      C      0.041033333333     0.826166666667     0.627366666667     0          
H13      H      0.054933333333     0.821166666667     0.571466666667     0          
H14      H      0.069033333333     0.847666666667     0.668066666667     0          
H15      H      0.021233333333     0.842866666667     0.614266666667     0          
C22      C      0.957033333333     0.731666666667     0.787766666667     0          
C23      C      0.003133333333     0.734766666667     0.632666666667     0          
H16      H      0.018533333333     0.735766666667     0.576566666667     0          
C24      C      0.008633333333     0.777566666667     0.668666666667     0          
C25      C      0.951333333333     0.688566666667     0.751666666667     0          
H17      H      0.929933333333     0.656866666667     0.779766666667     0          
C26      C      0.975633333333     0.690166666667     0.675666666667     0          
H18      H      0.973533333333     0.660066666667     0.652366666667     0          
C27      C      0.985833333333     0.775966666667     0.746266666667     0          
H19      H      0.990033333333     0.806466666667     0.771966666667     0          
C28      C      0.934633333333     0.730666666667     0.871666666667     0          
H20      H      0.914833333333     0.695466666667     0.893066666667     0          
H21      H      0.912233333333     0.745066666667     0.865266666667     0          
H22      H      0.961433333333     0.750866666667     0.915366666667     0          
C29?     C      0.785033333333     0.651066666667     0.168766666667     0          
C30?     C      0.732633333333     0.633566666667     0.171666666667     0          
H23?     H      0.725033333333     0.648966666667     0.222666666667     0          
H24?     H      0.713933333333     0.596566666667     0.177666666667     0          
H25?     H      0.722333333333     0.643166666667     0.115866666667     0          
C31?     C      0.803733333333     0.635866666667     0.106566666667     0          
H26?     H      0.781833333333     0.612866666667     0.062166666667     0          
C32?     C      0.851633333333     0.651166666667     0.103966666667     0          
C33?     C      0.870333333333     0.626366666667     0.046666666667     0          
H27?     H      0.907333333333     0.642666666667     0.052466666667     0          
H28?     H      0.861633333333     0.628966666667     0.984066666667     0          
H29?     H      0.854733333333     0.590466666667     0.063166666667     0          
Zr1      Zr     0.073153333333     0.015806666667     0.595976666667     0          
O1       O      0.149213333333     0.080446666667     0.562306666667     0          
O2       O      0.139663333333     0.118256666667     0.438346666667     0          
O3       O      0.600243333333     0.357896666667     0.047286666667     0          
O4       O      0.569973333333     0.272746666667     0.043666666667     0          
O6       O      0.071903333333     0.015726666667     0.453166666667     0          
C1       C      0.165863333333     0.113566666667     0.499666666667     0          
C2       C      0.221973333333     0.150086666667     0.498866666667     0          
C3       C      0.542653333333     0.305986666667     0.160066666667     0          
C4       C      0.572913333333     0.312616666667     0.076766666667     0          
C5       C      0.468993333333     0.257036666667     0.250966666667     0          
H1       H      0.436233333333     0.227866666667     0.258066666667     0          
C6       C      0.496213333333     0.263066666667     0.172866666667     0          
H2       H      0.482733333333     0.237466666667     0.127966666667     0          
C7       C      0.488973333333     0.293206666667     0.319366666667     0          
C8       C      0.464533333333     0.294866666667     0.567166666667     0          
H3       H      0.483733333333     0.307766666667     0.620666666667     0          
C9       C      0.462103333333     0.285596666667     0.406266666667     0          
C10      C      0.489113333333     0.303986666667     0.485166666667     0          
H4       H      0.525233333333     0.323266666667     0.483166666667     0          
C11      C      0.408683333333     0.257616666667     0.410366666667     0          
H5       H      0.389633333333     0.245466666667     0.356666666667     0          
C12      C      0.243833333333     0.186566666667     0.432866666667     0          
H6       H      0.223133333333     0.189466666667     0.388266666667     0          
C13      C      0.411733333333     0.266666666667     0.570766666667     0          
H7       H      0.394833333333     0.260366666667     0.626866666667     0          
C14      C      0.383633333333     0.247566666667     0.492466666667     0          
C15      C      0.327033333333     0.214966666667     0.495366666667     0          
C16      C      0.562033333333     0.342666666667     0.226666666667     0          
H8       H      0.593533333333     0.372966666667     0.217266666667     0          
C17      C      0.296033333333     0.219066666667     0.431366666667     0          
H9       H      0.310833333333     0.244366666667     0.386166666667     0          
C18      C      0.536533333333     0.335966666667     0.305666666667     0          
H10      H      0.551533333333     0.360766666667     0.351666666667     0          
C19      C      0.252333333333     0.145866666667     0.562166666667     0          
H11      H      0.237633333333     0.120866666667     0.607866666667     0          
C20      C      0.304733333333     0.178166666667     0.559966666667     0          
H12      H      0.325433333333     0.174666666667     0.603866666667     0          
C21      C      0.173833333333     0.214866666667     0.627366666667     0          
H13      H      0.178833333333     0.233766666667     0.571466666667     0          
H14      H      0.152333333333     0.221366666667     0.668066666667     0          
H15      H      0.157133333333     0.178366666667     0.614266666667     0          
C22      C      0.268333333333     0.225366666667     0.787766666667     0          
C23      C      0.265233333333     0.268366666667     0.632666666667     0          
H16      H      0.264233333333     0.282766666667     0.576566666667     0          
C24      C      0.222433333333     0.231066666667     0.668666666667     0          
C25      C      0.311433333333     0.262766666667     0.751666666667     0          
H17      H      0.343133333333     0.273066666667     0.779766666667     0          
C26      C      0.309833333333     0.285466666667     0.675666666667     0          
H18      H      0.339933333333     0.313466666667     0.652366666667     0          
C27      C      0.224033333333     0.209866666667     0.746266666667     0          
H19      H      0.193533333333     0.183566666667     0.771966666667     0          
C28      C      0.269333333333     0.203966666667     0.871666666667     0          
H20      H      0.304533333333     0.219366666667     0.893066666667     0          
H21      H      0.254933333333     0.167166666667     0.865266666667     0          
H22      H      0.249133333333     0.210566666667     0.915366666667     0          
C29?     C      0.348933333333     0.133966666667     0.168766666667     0          
C30?     C      0.366433333333     0.099066666667     0.171666666667     0          
H23?     H      0.351033333333     0.076066666667     0.222666666667     0          
H24?     H      0.403433333333     0.117366666667     0.177666666667     0          
H25?     H      0.356833333333     0.079166666667     0.115866666667     0          
C31?     C      0.364133333333     0.167866666667     0.106566666667     0          
H26?     H      0.387133333333     0.168966666667     0.062166666667     0          
C32?     C      0.348833333333     0.200466666667     0.103966666667     0          
C33?     C      0.373633333333     0.243966666667     0.046666666667     0          
H27?     H      0.357333333333     0.264666666667     0.052466666667     0          
H28?     H      0.371033333333     0.232666666667     0.984066666667     0          
H29?     H      0.409533333333     0.264266666667     0.063166666667     0          


