data_BIZLOO

_audit_creation_method RASPA-1.0
_audit_creation_date 2020-11-2
_audit_author_name 'Rocio Bueno-Perez'

_cell_length_a    32.9382
_cell_length_b    32.9382
_cell_length_c    32.9382
_cell_angle_alpha 90
_cell_angle_beta  90
_cell_angle_gamma 90
_cell_volume      35735.5

_symmetry_cell_setting          triclinic
_symmetry_space_group_name_Hall 'P 1'
_symmetry_space_group_name_H-M  'P 1'
_symmetry_Int_Tables_number     1

_symmetry_equiv_pos_as_xyz 'x,y,z'

loop_
_atom_site_label
_atom_site_type_symbol
_atom_site_fract_x
_atom_site_fract_y
_atom_site_fract_z
_atom_site_charge
C1       C      0.609200000000     0.280700000000     0.250000000000     0          
H2       H      0.633600000000     0.292880000000     0.258380000000     0          
C3       C      0.573500000000     0.291800000000     0.266700000000     0          
H4       H      0.573630000000     0.312660000000     0.286230000000     0          
C5       C      0.536700000000     0.274400000000     0.256800000000     0          
C6       C      0.609200000000     0.780700000000     0.750000000000     0          
H7       H      0.633600000000     0.792880000000     0.758380000000     0          
C8       C      0.573500000000     0.791800000000     0.766700000000     0          
H9       H      0.573630000000     0.812660000000     0.786230000000     0          
C10      C      0.536700000000     0.774400000000     0.756800000000     0          
C11      C      0.109200000000     0.280700000000     0.750000000000     0          
H12      H      0.133600000000     0.292880000000     0.758380000000     0          
C13      C      0.073500000000     0.291800000000     0.766700000000     0          
H14      H      0.073630000000     0.312660000000     0.786230000000     0          
C15      C      0.036700000000     0.274400000000     0.756800000000     0          
C16      C      0.109200000000     0.780700000000     0.250000000000     0          
H17      H      0.133600000000     0.792880000000     0.258380000000     0          
C18      C      0.073500000000     0.791800000000     0.266700000000     0          
H19      H      0.073630000000     0.812660000000     0.286230000000     0          
C20      C      0.036700000000     0.774400000000     0.256800000000     0          
C21      C      0.890800000000     0.719300000000     0.750000000000     0          
H22      H      0.866400000000     0.707120000000     0.758380000000     0          
C23      C      0.926500000000     0.708200000000     0.766700000000     0          
H24      H      0.926370000000     0.687340000000     0.786230000000     0          
C25      C      0.963300000000     0.725600000000     0.756800000000     0          
C26      C      0.890800000000     0.219300000000     0.250000000000     0          
H27      H      0.866400000000     0.207120000000     0.258380000000     0          
C28      C      0.926500000000     0.208200000000     0.266700000000     0          
H29      H      0.926370000000     0.187340000000     0.286230000000     0          
C30      C      0.963300000000     0.225600000000     0.256800000000     0          
C31      C      0.390800000000     0.280700000000     0.750000000000     0          
H32      H      0.366400000000     0.292880000000     0.741620000000     0          
C33      C      0.426500000000     0.291800000000     0.733300000000     0          
H34      H      0.426370000000     0.312660000000     0.713770000000     0          
C35      C      0.463300000000     0.274400000000     0.743200000000     0          
C36      C      0.390800000000     0.780700000000     0.250000000000     0          
H37      H      0.366400000000     0.792880000000     0.241620000000     0          
C38      C      0.426500000000     0.791800000000     0.233300000000     0          
H39      H      0.426370000000     0.812660000000     0.213770000000     0          
C40      C      0.463300000000     0.774400000000     0.243200000000     0          
C41      C      0.750000000000     0.109200000000     0.280700000000     0          
H42      H      0.758380000000     0.133600000000     0.292880000000     0          
C43      C      0.766700000000     0.073500000000     0.291800000000     0          
H44      H      0.786230000000     0.073630000000     0.312660000000     0          
C45      C      0.756800000000     0.036700000000     0.274400000000     0          
C46      C      0.250000000000     0.390800000000     0.719300000000     0          
H47      H      0.258380000000     0.366400000000     0.707120000000     0          
C48      C      0.266700000000     0.426500000000     0.708200000000     0          
H49      H      0.286230000000     0.426370000000     0.687340000000     0          
C50      C      0.256800000000     0.463300000000     0.725600000000     0          
C51      C      0.250000000000     0.890800000000     0.219300000000     0          
H52      H      0.258380000000     0.866400000000     0.207120000000     0          
C53      C      0.266700000000     0.926500000000     0.208200000000     0          
H54      H      0.286230000000     0.926370000000     0.187340000000     0          
C55      C      0.256800000000     0.963300000000     0.225600000000     0          
C56      C      0.750000000000     0.390800000000     0.280700000000     0          
H57      H      0.741620000000     0.366400000000     0.292880000000     0          
C58      C      0.733300000000     0.426500000000     0.291800000000     0          
H59      H      0.713770000000     0.426370000000     0.312660000000     0          
C60      C      0.743200000000     0.463300000000     0.274400000000     0          
C61      C      0.750000000000     0.890800000000     0.780700000000     0          
H62      H      0.741620000000     0.866400000000     0.792880000000     0          
C63      C      0.733300000000     0.926500000000     0.791800000000     0          
H64      H      0.713770000000     0.926370000000     0.812660000000     0          
C65      C      0.743200000000     0.963300000000     0.774400000000     0          
C66      C      0.750000000000     0.609200000000     0.719300000000     0          
H67      H      0.741620000000     0.633600000000     0.707120000000     0          
C68      C      0.733300000000     0.573500000000     0.708200000000     0          
H69      H      0.713770000000     0.573630000000     0.687340000000     0          
C70      C      0.743200000000     0.536700000000     0.725600000000     0          
C71      C      0.250000000000     0.609200000000     0.219300000000     0          
H72      H      0.241620000000     0.633600000000     0.207120000000     0          
C73      C      0.233300000000     0.573500000000     0.208200000000     0          
H74      H      0.213770000000     0.573630000000     0.187340000000     0          
C75      C      0.243200000000     0.536700000000     0.225600000000     0          
C76      C      0.250000000000     0.109200000000     0.719300000000     0          
H77      H      0.241620000000     0.133600000000     0.707120000000     0          
C78      C      0.233300000000     0.073500000000     0.708200000000     0          
H79      H      0.213770000000     0.073630000000     0.687340000000     0          
C80      C      0.243200000000     0.036700000000     0.725600000000     0          
C81      C      0.280700000000     0.750000000000     0.109200000000     0          
H82      H      0.292880000000     0.758380000000     0.133600000000     0          
C83      C      0.291800000000     0.766700000000     0.073500000000     0          
H84      H      0.312660000000     0.786230000000     0.073630000000     0          
C85      C      0.274400000000     0.756800000000     0.036700000000     0          
C86      C      0.780700000000     0.250000000000     0.109200000000     0          
H87      H      0.792880000000     0.258380000000     0.133600000000     0          
C88      C      0.791800000000     0.266700000000     0.073500000000     0          
H89      H      0.812660000000     0.286230000000     0.073630000000     0          
C90      C      0.774400000000     0.256800000000     0.036700000000     0          
C91      C      0.780700000000     0.750000000000     0.609200000000     0          
H92      H      0.792880000000     0.758380000000     0.633600000000     0          
C93      C      0.791800000000     0.766700000000     0.573500000000     0          
H94      H      0.812660000000     0.786230000000     0.573630000000     0          
C95      C      0.774400000000     0.756800000000     0.536700000000     0          
C96      C      0.719300000000     0.750000000000     0.890800000000     0          
H97      H      0.707120000000     0.758380000000     0.866400000000     0          
C98      C      0.708200000000     0.766700000000     0.926500000000     0          
H99      H      0.687340000000     0.786230000000     0.926370000000     0          
C100     C      0.725600000000     0.756800000000     0.963300000000     0          
C101     C      0.219300000000     0.750000000000     0.390800000000     0          
H102     H      0.207120000000     0.758380000000     0.366400000000     0          
C103     C      0.208200000000     0.766700000000     0.426500000000     0          
H104     H      0.187340000000     0.786230000000     0.426370000000     0          
C105     C      0.225600000000     0.756800000000     0.463300000000     0          
C106     C      0.280700000000     0.250000000000     0.890800000000     0          
H107     H      0.292880000000     0.241620000000     0.866400000000     0          
C108     C      0.291800000000     0.233300000000     0.926500000000     0          
H109     H      0.312660000000     0.213770000000     0.926370000000     0          
C110     C      0.274400000000     0.243200000000     0.963300000000     0          
C111     C      0.780700000000     0.250000000000     0.390800000000     0          
H112     H      0.792880000000     0.241620000000     0.366400000000     0          
C113     C      0.791800000000     0.233300000000     0.426500000000     0          
H114     H      0.812660000000     0.213770000000     0.426370000000     0          
C115     C      0.774400000000     0.243200000000     0.463300000000     0          
C116     C      0.219300000000     0.250000000000     0.609200000000     0          
H117     H      0.207120000000     0.241620000000     0.633600000000     0          
C118     C      0.208200000000     0.233300000000     0.573500000000     0          
H119     H      0.187340000000     0.213770000000     0.573630000000     0          
C120     C      0.225600000000     0.243200000000     0.536700000000     0          
C121     C      0.280700000000     0.609200000000     0.750000000000     0          
H122     H      0.292880000000     0.633600000000     0.741620000000     0          
C123     C      0.291800000000     0.573500000000     0.733300000000     0          
H124     H      0.312660000000     0.573630000000     0.713770000000     0          
C125     C      0.274400000000     0.536700000000     0.743200000000     0          
C126     C      0.280700000000     0.109200000000     0.250000000000     0          
H127     H      0.292880000000     0.133600000000     0.241620000000     0          
C128     C      0.291800000000     0.073500000000     0.233300000000     0          
H129     H      0.312660000000     0.073630000000     0.213770000000     0          
C130     C      0.274400000000     0.036700000000     0.243200000000     0          
C131     C      0.719300000000     0.390800000000     0.750000000000     0          
H132     H      0.707120000000     0.366400000000     0.741620000000     0          
C133     C      0.708200000000     0.426500000000     0.733300000000     0          
H134     H      0.687340000000     0.426370000000     0.713770000000     0          
C135     C      0.725600000000     0.463300000000     0.743200000000     0          
C136     C      0.219300000000     0.390800000000     0.250000000000     0          
H137     H      0.207120000000     0.366400000000     0.241620000000     0          
C138     C      0.208200000000     0.426500000000     0.233300000000     0          
H139     H      0.187340000000     0.426370000000     0.213770000000     0          
C140     C      0.225600000000     0.463300000000     0.243200000000     0          
C141     C      0.219300000000     0.890800000000     0.750000000000     0          
H142     H      0.207120000000     0.866400000000     0.741620000000     0          
C143     C      0.208200000000     0.926500000000     0.733300000000     0          
H144     H      0.187340000000     0.926370000000     0.713770000000     0          
C145     C      0.225600000000     0.963300000000     0.743200000000     0          
C146     C      0.780700000000     0.890800000000     0.250000000000     0          
H147     H      0.792880000000     0.866400000000     0.258380000000     0          
C148     C      0.791800000000     0.926500000000     0.266700000000     0          
H149     H      0.812660000000     0.926370000000     0.286230000000     0          
C150     C      0.774400000000     0.963300000000     0.256800000000     0          
C151     C      0.719300000000     0.609200000000     0.250000000000     0          
H152     H      0.707120000000     0.633600000000     0.258380000000     0          
C153     C      0.708200000000     0.573500000000     0.266700000000     0          
H154     H      0.687340000000     0.573630000000     0.286230000000     0          
C155     C      0.725600000000     0.536700000000     0.256800000000     0          
C156     C      0.719300000000     0.109200000000     0.750000000000     0          
H157     H      0.707120000000     0.133600000000     0.758380000000     0          
C158     C      0.708200000000     0.073500000000     0.766700000000     0          
H159     H      0.687340000000     0.073630000000     0.786230000000     0          
C160     C      0.725600000000     0.036700000000     0.756800000000     0          
C161     C      0.609200000000     0.250000000000     0.719300000000     0          
H162     H      0.633600000000     0.258380000000     0.707120000000     0          
C163     C      0.573500000000     0.266700000000     0.708200000000     0          
H164     H      0.573630000000     0.286230000000     0.687340000000     0          
C165     C      0.536700000000     0.256800000000     0.725600000000     0          
C166     C      0.609200000000     0.750000000000     0.219300000000     0          
H167     H      0.633600000000     0.758380000000     0.207120000000     0          
C168     C      0.573500000000     0.766700000000     0.208200000000     0          
H169     H      0.573630000000     0.786230000000     0.187340000000     0          
C170     C      0.536700000000     0.756800000000     0.225600000000     0          
C171     C      0.390800000000     0.250000000000     0.280700000000     0          
H172     H      0.366400000000     0.258380000000     0.292880000000     0          
C173     C      0.426500000000     0.266700000000     0.291800000000     0          
H174     H      0.426370000000     0.286230000000     0.312660000000     0          
C175     C      0.463300000000     0.256800000000     0.274400000000     0          
C176     C      0.390800000000     0.750000000000     0.780700000000     0          
H177     H      0.366400000000     0.758380000000     0.792880000000     0          
C178     C      0.426500000000     0.766700000000     0.791800000000     0          
H179     H      0.426370000000     0.786230000000     0.812660000000     0          
C180     C      0.463300000000     0.756800000000     0.774400000000     0          
C181     C      0.890800000000     0.250000000000     0.780700000000     0          
H182     H      0.866400000000     0.258380000000     0.792880000000     0          
C183     C      0.926500000000     0.266700000000     0.791800000000     0          
H184     H      0.926370000000     0.286230000000     0.812660000000     0          
C185     C      0.963300000000     0.256800000000     0.774400000000     0          
C186     C      0.890800000000     0.750000000000     0.280700000000     0          
H187     H      0.866400000000     0.758380000000     0.292880000000     0          
C188     C      0.926500000000     0.766700000000     0.291800000000     0          
H189     H      0.926370000000     0.786230000000     0.312660000000     0          
C190     C      0.963300000000     0.756800000000     0.274400000000     0          
C191     C      0.109200000000     0.750000000000     0.780700000000     0          
H192     H      0.133600000000     0.741620000000     0.792880000000     0          
C193     C      0.073500000000     0.733300000000     0.791800000000     0          
H194     H      0.073630000000     0.713770000000     0.812660000000     0          
C195     C      0.036700000000     0.743200000000     0.774400000000     0          
C196     C      0.109200000000     0.250000000000     0.280700000000     0          
H197     H      0.133600000000     0.241620000000     0.292880000000     0          
C198     C      0.073500000000     0.233300000000     0.291800000000     0          
H199     H      0.073630000000     0.213770000000     0.312660000000     0          
C200     C      0.036700000000     0.243200000000     0.274400000000     0          
C201     C      0.250000000000     0.780700000000     0.890800000000     0          
H202     H      0.258380000000     0.792880000000     0.866400000000     0          
C203     C      0.266700000000     0.791800000000     0.926500000000     0          
H204     H      0.286230000000     0.812660000000     0.926370000000     0          
C205     C      0.256800000000     0.774400000000     0.963300000000     0          
C206     C      0.750000000000     0.280700000000     0.890800000000     0          
H207     H      0.758380000000     0.292880000000     0.866400000000     0          
C208     C      0.766700000000     0.291800000000     0.926500000000     0          
H209     H      0.786230000000     0.312660000000     0.926370000000     0          
C210     C      0.756800000000     0.274400000000     0.963300000000     0          
C211     C      0.750000000000     0.780700000000     0.390800000000     0          
H212     H      0.758380000000     0.792880000000     0.366400000000     0          
C213     C      0.766700000000     0.791800000000     0.426500000000     0          
H214     H      0.786230000000     0.812660000000     0.426370000000     0          
C215     C      0.756800000000     0.774400000000     0.463300000000     0          
C216     C      0.250000000000     0.219300000000     0.109200000000     0          
H217     H      0.258380000000     0.207120000000     0.133600000000     0          
C218     C      0.266700000000     0.208200000000     0.073500000000     0          
H219     H      0.286230000000     0.187340000000     0.073630000000     0          
C220     C      0.256800000000     0.225600000000     0.036700000000     0          
C221     C      0.750000000000     0.219300000000     0.609200000000     0          
H222     H      0.758380000000     0.207120000000     0.633600000000     0          
C223     C      0.766700000000     0.208200000000     0.573500000000     0          
H224     H      0.786230000000     0.187340000000     0.573630000000     0          
C225     C      0.756800000000     0.225600000000     0.536700000000     0          
C226     C      0.750000000000     0.780700000000     0.109200000000     0          
H227     H      0.741620000000     0.792880000000     0.133600000000     0          
C228     C      0.733300000000     0.791800000000     0.073500000000     0          
H229     H      0.713770000000     0.812660000000     0.073630000000     0          
C230     C      0.743200000000     0.774400000000     0.036700000000     0          
C231     C      0.250000000000     0.780700000000     0.609200000000     0          
H232     H      0.241620000000     0.792880000000     0.633600000000     0          
C233     C      0.233300000000     0.791800000000     0.573500000000     0          
H234     H      0.213770000000     0.812660000000     0.573630000000     0          
C235     C      0.243200000000     0.774400000000     0.536700000000     0          
C236     C      0.250000000000     0.219300000000     0.390800000000     0          
H237     H      0.241620000000     0.207120000000     0.366400000000     0          
C238     C      0.233300000000     0.208200000000     0.426500000000     0          
H239     H      0.213770000000     0.187340000000     0.426370000000     0          
C240     C      0.243200000000     0.225600000000     0.463300000000     0          
C241     C      0.390800000000     0.719300000000     0.750000000000     0          
H242     H      0.366400000000     0.707120000000     0.741620000000     0          
C243     C      0.426500000000     0.708200000000     0.733300000000     0          
H244     H      0.426370000000     0.687340000000     0.713770000000     0          
C245     C      0.463300000000     0.725600000000     0.743200000000     0          
C246     C      0.390800000000     0.219300000000     0.250000000000     0          
H247     H      0.366400000000     0.207120000000     0.241620000000     0          
C248     C      0.426500000000     0.208200000000     0.233300000000     0          
H249     H      0.426370000000     0.187340000000     0.213770000000     0          
C250     C      0.463300000000     0.225600000000     0.243200000000     0          
C251     C      0.890800000000     0.719300000000     0.250000000000     0          
H252     H      0.866400000000     0.707120000000     0.241620000000     0          
C253     C      0.926500000000     0.708200000000     0.233300000000     0          
H254     H      0.926370000000     0.687340000000     0.213770000000     0          
C255     C      0.963300000000     0.725600000000     0.243200000000     0          
C256     C      0.890800000000     0.219300000000     0.750000000000     0          
H257     H      0.866400000000     0.207120000000     0.741620000000     0          
C258     C      0.926500000000     0.208200000000     0.733300000000     0          
H259     H      0.926370000000     0.187340000000     0.713770000000     0          
C260     C      0.963300000000     0.225600000000     0.743200000000     0          
C261     C      0.109200000000     0.280700000000     0.250000000000     0          
H262     H      0.133600000000     0.292880000000     0.241620000000     0          
C263     C      0.073500000000     0.291800000000     0.233300000000     0          
H264     H      0.073630000000     0.312660000000     0.213770000000     0          
C265     C      0.036700000000     0.274400000000     0.243200000000     0          
C266     C      0.109200000000     0.780700000000     0.750000000000     0          
H267     H      0.133600000000     0.792880000000     0.741620000000     0          
C268     C      0.073500000000     0.791800000000     0.733300000000     0          
H269     H      0.073630000000     0.812660000000     0.713770000000     0          
C270     C      0.036700000000     0.774400000000     0.743200000000     0          
C271     C      0.609200000000     0.719300000000     0.250000000000     0          
H272     H      0.633600000000     0.707120000000     0.258380000000     0          
C273     C      0.573500000000     0.708200000000     0.266700000000     0          
H274     H      0.573630000000     0.687340000000     0.286230000000     0          
C275     C      0.536700000000     0.725600000000     0.256800000000     0          
C276     C      0.609200000000     0.219300000000     0.750000000000     0          
H277     H      0.633600000000     0.207120000000     0.758380000000     0          
C278     C      0.573500000000     0.208200000000     0.766700000000     0          
H279     H      0.573630000000     0.187340000000     0.786230000000     0          
C280     C      0.536700000000     0.225600000000     0.756800000000     0          
C281     C      0.750000000000     0.890800000000     0.219300000000     0          
H282     H      0.741620000000     0.866400000000     0.207120000000     0          
C283     C      0.733300000000     0.926500000000     0.208200000000     0          
H284     H      0.713770000000     0.926370000000     0.187340000000     0          
C285     C      0.743200000000     0.963300000000     0.225600000000     0          
C286     C      0.250000000000     0.609200000000     0.780700000000     0          
H287     H      0.241620000000     0.633600000000     0.792880000000     0          
C288     C      0.233300000000     0.573500000000     0.791800000000     0          
H289     H      0.213770000000     0.573630000000     0.812660000000     0          
C290     C      0.243200000000     0.536700000000     0.774400000000     0          
C291     C      0.250000000000     0.109200000000     0.280700000000     0          
H292     H      0.241620000000     0.133600000000     0.292880000000     0          
C293     C      0.233300000000     0.073500000000     0.291800000000     0          
H294     H      0.213770000000     0.073630000000     0.312660000000     0          
C295     C      0.243200000000     0.036700000000     0.274400000000     0          
C296     C      0.750000000000     0.609200000000     0.219300000000     0          
H297     H      0.758380000000     0.633600000000     0.207120000000     0          
C298     C      0.766700000000     0.573500000000     0.208200000000     0          
H299     H      0.786230000000     0.573630000000     0.187340000000     0          
C300     C      0.756800000000     0.536700000000     0.225600000000     0          
C301     C      0.750000000000     0.109200000000     0.719300000000     0          
H302     H      0.758380000000     0.133600000000     0.707120000000     0          
C303     C      0.766700000000     0.073500000000     0.708200000000     0          
H304     H      0.786230000000     0.073630000000     0.687340000000     0          
C305     C      0.756800000000     0.036700000000     0.725600000000     0          
C306     C      0.250000000000     0.390800000000     0.280700000000     0          
H307     H      0.258380000000     0.366400000000     0.292880000000     0          
C308     C      0.266700000000     0.426500000000     0.291800000000     0          
H309     H      0.286230000000     0.426370000000     0.312660000000     0          
C310     C      0.256800000000     0.463300000000     0.274400000000     0          
C311     C      0.250000000000     0.890800000000     0.780700000000     0          
H312     H      0.258380000000     0.866400000000     0.792880000000     0          
C313     C      0.266700000000     0.926500000000     0.791800000000     0          
H314     H      0.286230000000     0.926370000000     0.812660000000     0          
C315     C      0.256800000000     0.963300000000     0.774400000000     0          
C316     C      0.750000000000     0.390800000000     0.780700000000     0          
H317     H      0.758380000000     0.366400000000     0.792880000000     0          
C318     C      0.766700000000     0.426500000000     0.791800000000     0          
H319     H      0.786230000000     0.426370000000     0.812660000000     0          
C320     C      0.756800000000     0.463300000000     0.774400000000     0          
C321     C      0.719300000000     0.750000000000     0.390800000000     0          
H322     H      0.707120000000     0.741620000000     0.366400000000     0          
C323     C      0.708200000000     0.733300000000     0.426500000000     0          
H324     H      0.687340000000     0.713770000000     0.426370000000     0          
C325     C      0.725600000000     0.743200000000     0.463300000000     0          
C326     C      0.719300000000     0.250000000000     0.890800000000     0          
H327     H      0.707120000000     0.241620000000     0.866400000000     0          
C328     C      0.708200000000     0.233300000000     0.926500000000     0          
H329     H      0.687340000000     0.213770000000     0.926370000000     0          
C330     C      0.725600000000     0.243200000000     0.963300000000     0          
C331     C      0.219300000000     0.750000000000     0.890800000000     0          
H332     H      0.207120000000     0.741620000000     0.866400000000     0          
C333     C      0.208200000000     0.733300000000     0.926500000000     0          
H334     H      0.187340000000     0.713770000000     0.926370000000     0          
C335     C      0.225600000000     0.743200000000     0.963300000000     0          
C336     C      0.280700000000     0.750000000000     0.609200000000     0          
H337     H      0.292880000000     0.741620000000     0.633600000000     0          
C338     C      0.291800000000     0.733300000000     0.573500000000     0          
H339     H      0.312660000000     0.713770000000     0.573630000000     0          
C340     C      0.274400000000     0.743200000000     0.536700000000     0          
C341     C      0.780700000000     0.750000000000     0.109200000000     0          
H342     H      0.792880000000     0.741620000000     0.133600000000     0          
C343     C      0.791800000000     0.733300000000     0.073500000000     0          
H344     H      0.812660000000     0.713770000000     0.073630000000     0          
C345     C      0.774400000000     0.743200000000     0.036700000000     0          
C346     C      0.719300000000     0.250000000000     0.609200000000     0          
H347     H      0.707120000000     0.258380000000     0.633600000000     0          
C348     C      0.708200000000     0.266700000000     0.573500000000     0          
H349     H      0.687340000000     0.286230000000     0.573630000000     0          
C350     C      0.725600000000     0.256800000000     0.536700000000     0          
C351     C      0.219300000000     0.250000000000     0.109200000000     0          
H352     H      0.207120000000     0.258380000000     0.133600000000     0          
C353     C      0.208200000000     0.266700000000     0.073500000000     0          
H354     H      0.187340000000     0.286230000000     0.073630000000     0          
C355     C      0.225600000000     0.256800000000     0.036700000000     0          
C356     C      0.280700000000     0.250000000000     0.390800000000     0          
H357     H      0.292880000000     0.258380000000     0.366400000000     0          
C358     C      0.291800000000     0.266700000000     0.426500000000     0          
H359     H      0.312660000000     0.286230000000     0.426370000000     0          
C360     C      0.274400000000     0.256800000000     0.463300000000     0          
C361     C      0.219300000000     0.390800000000     0.750000000000     0          
H362     H      0.207120000000     0.366400000000     0.758380000000     0          
C363     C      0.208200000000     0.426500000000     0.766700000000     0          
H364     H      0.187340000000     0.426370000000     0.786230000000     0          
C365     C      0.225600000000     0.463300000000     0.756800000000     0          
C366     C      0.219300000000     0.890800000000     0.250000000000     0          
H367     H      0.207120000000     0.866400000000     0.258380000000     0          
C368     C      0.208200000000     0.926500000000     0.266700000000     0          
H369     H      0.187340000000     0.926370000000     0.286230000000     0          
C370     C      0.225600000000     0.963300000000     0.256800000000     0          
C371     C      0.280700000000     0.609200000000     0.250000000000     0          
H372     H      0.292880000000     0.633600000000     0.258380000000     0          
C373     C      0.291800000000     0.573500000000     0.266700000000     0          
H374     H      0.312660000000     0.573630000000     0.286230000000     0          
C375     C      0.274400000000     0.536700000000     0.256800000000     0          
C376     C      0.280700000000     0.109200000000     0.750000000000     0          
H377     H      0.292880000000     0.133600000000     0.758380000000     0          
C378     C      0.291800000000     0.073500000000     0.766700000000     0          
H379     H      0.312660000000     0.073630000000     0.786230000000     0          
C380     C      0.274400000000     0.036700000000     0.756800000000     0          
C381     C      0.780700000000     0.609200000000     0.750000000000     0          
H382     H      0.792880000000     0.633600000000     0.758380000000     0          
C383     C      0.791800000000     0.573500000000     0.766700000000     0          
H384     H      0.812660000000     0.573630000000     0.786230000000     0          
C385     C      0.774400000000     0.536700000000     0.756800000000     0          
C386     C      0.719300000000     0.109200000000     0.250000000000     0          
H387     H      0.707120000000     0.133600000000     0.241620000000     0          
C388     C      0.708200000000     0.073500000000     0.233300000000     0          
H389     H      0.687340000000     0.073630000000     0.213770000000     0          
C390     C      0.725600000000     0.036700000000     0.243200000000     0          
C391     C      0.780700000000     0.390800000000     0.250000000000     0          
H392     H      0.792880000000     0.366400000000     0.241620000000     0          
C393     C      0.791800000000     0.426500000000     0.233300000000     0          
H394     H      0.812660000000     0.426370000000     0.213770000000     0          
C395     C      0.774400000000     0.463300000000     0.243200000000     0          
C396     C      0.780700000000     0.890800000000     0.750000000000     0          
H397     H      0.792880000000     0.866400000000     0.741620000000     0          
C398     C      0.791800000000     0.926500000000     0.733300000000     0          
H399     H      0.812660000000     0.926370000000     0.713770000000     0          
C400     C      0.774400000000     0.963300000000     0.743200000000     0          
C401     C      0.390800000000     0.750000000000     0.280700000000     0          
H402     H      0.366400000000     0.741620000000     0.292880000000     0          
C403     C      0.426500000000     0.733300000000     0.291800000000     0          
H404     H      0.426370000000     0.713770000000     0.312660000000     0          
C405     C      0.463300000000     0.743200000000     0.274400000000     0          
C406     C      0.390800000000     0.250000000000     0.780700000000     0          
H407     H      0.366400000000     0.241620000000     0.792880000000     0          
C408     C      0.426500000000     0.233300000000     0.791800000000     0          
H409     H      0.426370000000     0.213770000000     0.812660000000     0          
C410     C      0.463300000000     0.243200000000     0.774400000000     0          
C411     C      0.609200000000     0.750000000000     0.719300000000     0          
H412     H      0.633600000000     0.741620000000     0.707120000000     0          
C413     C      0.573500000000     0.733300000000     0.708200000000     0          
H414     H      0.573630000000     0.713770000000     0.687340000000     0          
C415     C      0.536700000000     0.743200000000     0.725600000000     0          
C416     C      0.609200000000     0.250000000000     0.219300000000     0          
H417     H      0.633600000000     0.241620000000     0.207120000000     0          
C418     C      0.573500000000     0.233300000000     0.208200000000     0          
H419     H      0.573630000000     0.213770000000     0.187340000000     0          
C420     C      0.536700000000     0.243200000000     0.225600000000     0          
C421     C      0.109200000000     0.750000000000     0.219300000000     0          
H422     H      0.133600000000     0.741620000000     0.207120000000     0          
C423     C      0.073500000000     0.733300000000     0.208200000000     0          
H424     H      0.073630000000     0.713770000000     0.187340000000     0          
C425     C      0.036700000000     0.743200000000     0.225600000000     0          
C426     C      0.109200000000     0.250000000000     0.719300000000     0          
H427     H      0.133600000000     0.241620000000     0.707120000000     0          
C428     C      0.073500000000     0.233300000000     0.708200000000     0          
H429     H      0.073630000000     0.213770000000     0.687340000000     0          
C430     C      0.036700000000     0.243200000000     0.725600000000     0          
C431     C      0.890800000000     0.250000000000     0.219300000000     0          
H432     H      0.866400000000     0.258380000000     0.207120000000     0          
C433     C      0.926500000000     0.266700000000     0.208200000000     0          
H434     H      0.926370000000     0.286230000000     0.187340000000     0          
C435     C      0.963300000000     0.256800000000     0.225600000000     0          
C436     C      0.890800000000     0.750000000000     0.719300000000     0          
H437     H      0.866400000000     0.758380000000     0.707120000000     0          
C438     C      0.926500000000     0.766700000000     0.708200000000     0          
H439     H      0.926370000000     0.786230000000     0.687340000000     0          
C440     C      0.963300000000     0.756800000000     0.725600000000     0          
C441     C      0.750000000000     0.719300000000     0.609200000000     0          
H442     H      0.741620000000     0.707120000000     0.633600000000     0          
C443     C      0.733300000000     0.708200000000     0.573500000000     0          
H444     H      0.713770000000     0.687340000000     0.573630000000     0          
C445     C      0.743200000000     0.725600000000     0.536700000000     0          
C446     C      0.750000000000     0.219300000000     0.109200000000     0          
H447     H      0.741620000000     0.207120000000     0.133600000000     0          
C448     C      0.733300000000     0.208200000000     0.073500000000     0          
H449     H      0.713770000000     0.187340000000     0.073630000000     0          
C450     C      0.743200000000     0.225600000000     0.036700000000     0          
C451     C      0.250000000000     0.719300000000     0.109200000000     0          
H452     H      0.241620000000     0.707120000000     0.133600000000     0          
C453     C      0.233300000000     0.708200000000     0.073500000000     0          
H454     H      0.213770000000     0.687340000000     0.073630000000     0          
C455     C      0.243200000000     0.725600000000     0.036700000000     0          
C456     C      0.750000000000     0.280700000000     0.390800000000     0          
H457     H      0.741620000000     0.292880000000     0.366400000000     0          
C458     C      0.733300000000     0.291800000000     0.426500000000     0          
H459     H      0.713770000000     0.312660000000     0.426370000000     0          
C460     C      0.743200000000     0.274400000000     0.463300000000     0          
C461     C      0.250000000000     0.280700000000     0.890800000000     0          
H462     H      0.241620000000     0.292880000000     0.866400000000     0          
C463     C      0.233300000000     0.291800000000     0.926500000000     0          
H464     H      0.213770000000     0.312660000000     0.926370000000     0          
C465     C      0.243200000000     0.274400000000     0.963300000000     0          
C466     C      0.250000000000     0.719300000000     0.390800000000     0          
H467     H      0.258380000000     0.707120000000     0.366400000000     0          
C468     C      0.266700000000     0.708200000000     0.426500000000     0          
H469     H      0.286230000000     0.687340000000     0.426370000000     0          
C470     C      0.256800000000     0.725600000000     0.463300000000     0          
C471     C      0.750000000000     0.719300000000     0.890800000000     0          
H472     H      0.758380000000     0.707120000000     0.866400000000     0          
C473     C      0.766700000000     0.708200000000     0.926500000000     0          
H474     H      0.786230000000     0.687340000000     0.926370000000     0          
C475     C      0.756800000000     0.725600000000     0.963300000000     0          
C476     C      0.250000000000     0.280700000000     0.609200000000     0          
H477     H      0.258380000000     0.292880000000     0.633600000000     0          
C478     C      0.266700000000     0.291800000000     0.573500000000     0          
H479     H      0.286230000000     0.312660000000     0.573630000000     0          
C480     C      0.256800000000     0.274400000000     0.536700000000     0          
Zr481    Zr     0.500000000000     0.425100000000     0.500000000000     0          
Zr482    Zr     0.500000000000     0.925100000000     0.000000000000     0          
Zr483    Zr     0.000000000000     0.425100000000     0.000000000000     0          
Zr484    Zr     0.000000000000     0.925100000000     0.500000000000     0          
Zr485    Zr     0.500000000000     0.574900000000     0.500000000000     0          
Zr486    Zr     0.500000000000     0.074900000000     0.000000000000     0          
Zr487    Zr     0.000000000000     0.574900000000     0.000000000000     0          
Zr488    Zr     0.000000000000     0.074900000000     0.500000000000     0          
Zr489    Zr     0.500000000000     0.500000000000     0.425100000000     0          
Zr490    Zr     0.500000000000     0.000000000000     0.925100000000     0          
Zr491    Zr     0.000000000000     0.500000000000     0.925100000000     0          
Zr492    Zr     0.000000000000     0.000000000000     0.425100000000     0          
Zr493    Zr     0.500000000000     0.500000000000     0.574900000000     0          
Zr494    Zr     0.500000000000     0.000000000000     0.074900000000     0          
Zr495    Zr     0.000000000000     0.500000000000     0.074900000000     0          
Zr496    Zr     0.000000000000     0.000000000000     0.574900000000     0          
Zr497    Zr     0.425100000000     0.500000000000     0.500000000000     0          
Zr498    Zr     0.425100000000     0.000000000000     0.000000000000     0          
Zr499    Zr     0.925100000000     0.500000000000     0.000000000000     0          
Zr500    Zr     0.925100000000     0.000000000000     0.500000000000     0          
Zr501    Zr     0.574900000000     0.500000000000     0.500000000000     0          
Zr502    Zr     0.574900000000     0.000000000000     0.000000000000     0          
Zr503    Zr     0.074900000000     0.500000000000     0.000000000000     0          
Zr504    Zr     0.074900000000     0.000000000000     0.500000000000     0          
O505     O      0.500000000000     0.392570000000     0.440940000000     0          
C506     C      0.500000000000     0.332200000000     0.382400000000     0          
H507     H      0.500000000000     0.324390000000     0.409870000000     0          
C508     C      0.500000000000     0.302300000000     0.352000000000     0          
H509     H      0.500000000000     0.274800000000     0.359430000000     0          
O510     O      0.500000000000     0.892570000000     0.940940000000     0          
C511     C      0.500000000000     0.832200000000     0.882400000000     0          
H512     H      0.500000000000     0.824390000000     0.909870000000     0          
C513     C      0.500000000000     0.802300000000     0.852000000000     0          
H514     H      0.500000000000     0.774800000000     0.859430000000     0          
O515     O      0.000000000000     0.392570000000     0.940940000000     0          
C516     C      0.000000000000     0.332200000000     0.882400000000     0          
H517     H      0.000000000000     0.324390000000     0.909870000000     0          
C518     C      0.000000000000     0.302300000000     0.852000000000     0          
H519     H      0.000000000000     0.274800000000     0.859430000000     0          
O520     O      0.000000000000     0.892570000000     0.440940000000     0          
C521     C      0.000000000000     0.832200000000     0.382400000000     0          
H522     H      0.000000000000     0.824390000000     0.409870000000     0          
C523     C      0.000000000000     0.802300000000     0.352000000000     0          
H524     H      0.000000000000     0.774800000000     0.359430000000     0          
O525     O      0.500000000000     0.607430000000     0.440940000000     0          
C526     C      0.500000000000     0.667800000000     0.382400000000     0          
H527     H      0.500000000000     0.675610000000     0.409870000000     0          
C528     C      0.500000000000     0.697700000000     0.352000000000     0          
H529     H      0.500000000000     0.725200000000     0.359430000000     0          
O530     O      0.500000000000     0.107430000000     0.940940000000     0          
C531     C      0.500000000000     0.167800000000     0.882400000000     0          
H532     H      0.500000000000     0.175610000000     0.909870000000     0          
C533     C      0.500000000000     0.197700000000     0.852000000000     0          
H534     H      0.500000000000     0.225200000000     0.859430000000     0          
O535     O      0.000000000000     0.607430000000     0.940940000000     0          
C536     C      0.000000000000     0.667800000000     0.882400000000     0          
H537     H      0.000000000000     0.675610000000     0.909870000000     0          
C538     C      0.000000000000     0.697700000000     0.852000000000     0          
H539     H      0.000000000000     0.725200000000     0.859430000000     0          
O540     O      0.000000000000     0.107430000000     0.440940000000     0          
C541     C      0.000000000000     0.167800000000     0.382400000000     0          
H542     H      0.000000000000     0.175610000000     0.409870000000     0          
C543     C      0.000000000000     0.197700000000     0.352000000000     0          
H544     H      0.000000000000     0.225200000000     0.359430000000     0          
O545     O      0.500000000000     0.392570000000     0.559060000000     0          
C546     C      0.500000000000     0.332200000000     0.617600000000     0          
H547     H      0.500000000000     0.324390000000     0.590130000000     0          
C548     C      0.500000000000     0.302300000000     0.648000000000     0          
H549     H      0.500000000000     0.274800000000     0.640570000000     0          
O550     O      0.500000000000     0.892570000000     0.059060000000     0          
C551     C      0.500000000000     0.832200000000     0.117600000000     0          
H552     H      0.500000000000     0.824390000000     0.090130000000     0          
C553     C      0.500000000000     0.802300000000     0.148000000000     0          
H554     H      0.500000000000     0.774800000000     0.140570000000     0          
O555     O      0.000000000000     0.392570000000     0.059060000000     0          
C556     C      0.000000000000     0.332200000000     0.117600000000     0          
H557     H      0.000000000000     0.324390000000     0.090130000000     0          
C558     C      0.000000000000     0.302300000000     0.148000000000     0          
H559     H      0.000000000000     0.274800000000     0.140570000000     0          
O560     O      0.000000000000     0.892570000000     0.559060000000     0          
C561     C      0.000000000000     0.832200000000     0.617600000000     0          
H562     H      0.000000000000     0.824390000000     0.590130000000     0          
C563     C      0.000000000000     0.802300000000     0.648000000000     0          
H564     H      0.000000000000     0.774800000000     0.640570000000     0          
O565     O      0.500000000000     0.607430000000     0.559060000000     0          
C566     C      0.500000000000     0.667800000000     0.617600000000     0          
H567     H      0.500000000000     0.675610000000     0.590130000000     0          
C568     C      0.500000000000     0.697700000000     0.648000000000     0          
H569     H      0.500000000000     0.725200000000     0.640570000000     0          
O570     O      0.500000000000     0.107430000000     0.059060000000     0          
C571     C      0.500000000000     0.167800000000     0.117600000000     0          
H572     H      0.500000000000     0.175610000000     0.090130000000     0          
C573     C      0.500000000000     0.197700000000     0.148000000000     0          
H574     H      0.500000000000     0.225200000000     0.140570000000     0          
O575     O      0.000000000000     0.607430000000     0.059060000000     0          
C576     C      0.000000000000     0.667800000000     0.117600000000     0          
H577     H      0.000000000000     0.675610000000     0.090130000000     0          
C578     C      0.000000000000     0.697700000000     0.148000000000     0          
H579     H      0.000000000000     0.725200000000     0.140570000000     0          
O580     O      0.000000000000     0.107430000000     0.559060000000     0          
C581     C      0.000000000000     0.167800000000     0.617600000000     0          
H582     H      0.000000000000     0.175610000000     0.590130000000     0          
C583     C      0.000000000000     0.197700000000     0.648000000000     0          
H584     H      0.000000000000     0.225200000000     0.640570000000     0          
O585     O      0.440940000000     0.500000000000     0.392570000000     0          
C586     C      0.382400000000     0.500000000000     0.332200000000     0          
H587     H      0.409870000000     0.500000000000     0.324390000000     0          
C588     C      0.352000000000     0.500000000000     0.302300000000     0          
H589     H      0.359430000000     0.500000000000     0.274800000000     0          
O590     O      0.440940000000     0.000000000000     0.892570000000     0          
C591     C      0.382400000000     0.000000000000     0.832200000000     0          
H592     H      0.409870000000     0.000000000000     0.824390000000     0          
C593     C      0.352000000000     0.000000000000     0.802300000000     0          
H594     H      0.359430000000     0.000000000000     0.774800000000     0          
O595     O      0.940940000000     0.500000000000     0.892570000000     0          
C596     C      0.882400000000     0.500000000000     0.832200000000     0          
H597     H      0.909870000000     0.500000000000     0.824390000000     0          
C598     C      0.852000000000     0.500000000000     0.802300000000     0          
H599     H      0.859430000000     0.500000000000     0.774800000000     0          
O600     O      0.940940000000     0.000000000000     0.392570000000     0          
C601     C      0.882400000000     0.000000000000     0.332200000000     0          
H602     H      0.909870000000     0.000000000000     0.324390000000     0          
C603     C      0.852000000000     0.000000000000     0.302300000000     0          
H604     H      0.859430000000     0.000000000000     0.274800000000     0          
O605     O      0.440940000000     0.500000000000     0.607430000000     0          
C606     C      0.382400000000     0.500000000000     0.667800000000     0          
H607     H      0.409870000000     0.500000000000     0.675610000000     0          
C608     C      0.352000000000     0.500000000000     0.697700000000     0          
H609     H      0.359430000000     0.500000000000     0.725200000000     0          
O610     O      0.440940000000     0.000000000000     0.107430000000     0          
C611     C      0.382400000000     0.000000000000     0.167800000000     0          
H612     H      0.409870000000     0.000000000000     0.175610000000     0          
C613     C      0.352000000000     0.000000000000     0.197700000000     0          
H614     H      0.359430000000     0.000000000000     0.225200000000     0          
O615     O      0.940940000000     0.500000000000     0.107430000000     0          
C616     C      0.882400000000     0.500000000000     0.167800000000     0          
H617     H      0.909870000000     0.500000000000     0.175610000000     0          
C618     C      0.852000000000     0.500000000000     0.197700000000     0          
H619     H      0.859430000000     0.500000000000     0.225200000000     0          
O620     O      0.940940000000     0.000000000000     0.607430000000     0          
C621     C      0.882400000000     0.000000000000     0.667800000000     0          
H622     H      0.909870000000     0.000000000000     0.675610000000     0          
C623     C      0.852000000000     0.000000000000     0.697700000000     0          
H624     H      0.859430000000     0.000000000000     0.725200000000     0          
O625     O      0.559060000000     0.500000000000     0.392570000000     0          
C626     C      0.617600000000     0.500000000000     0.332200000000     0          
H627     H      0.590130000000     0.500000000000     0.324390000000     0          
C628     C      0.648000000000     0.500000000000     0.302300000000     0          
H629     H      0.640570000000     0.500000000000     0.274800000000     0          
O630     O      0.559060000000     0.000000000000     0.892570000000     0          
C631     C      0.617600000000     0.000000000000     0.832200000000     0          
H632     H      0.590130000000     0.000000000000     0.824390000000     0          
C633     C      0.648000000000     0.000000000000     0.802300000000     0          
H634     H      0.640570000000     0.000000000000     0.774800000000     0          
O635     O      0.059060000000     0.500000000000     0.892570000000     0          
C636     C      0.117600000000     0.500000000000     0.832200000000     0          
H637     H      0.090130000000     0.500000000000     0.824390000000     0          
C638     C      0.148000000000     0.500000000000     0.802300000000     0          
H639     H      0.140570000000     0.500000000000     0.774800000000     0          
O640     O      0.059060000000     0.000000000000     0.392570000000     0          
C641     C      0.117600000000     0.000000000000     0.332200000000     0          
H642     H      0.090130000000     0.000000000000     0.324390000000     0          
C643     C      0.148000000000     0.000000000000     0.302300000000     0          
H644     H      0.140570000000     0.000000000000     0.274800000000     0          
O645     O      0.559060000000     0.500000000000     0.607430000000     0          
C646     C      0.617600000000     0.500000000000     0.667800000000     0          
H647     H      0.590130000000     0.500000000000     0.675610000000     0          
C648     C      0.648000000000     0.500000000000     0.697700000000     0          
H649     H      0.640570000000     0.500000000000     0.725200000000     0          
O650     O      0.559060000000     0.000000000000     0.107430000000     0          
C651     C      0.617600000000     0.000000000000     0.167800000000     0          
H652     H      0.590130000000     0.000000000000     0.175610000000     0          
C653     C      0.648000000000     0.000000000000     0.197700000000     0          
H654     H      0.640570000000     0.000000000000     0.225200000000     0          
O655     O      0.059060000000     0.500000000000     0.107430000000     0          
C656     C      0.117600000000     0.500000000000     0.167800000000     0          
H657     H      0.090130000000     0.500000000000     0.175610000000     0          
C658     C      0.148000000000     0.500000000000     0.197700000000     0          
H659     H      0.140570000000     0.500000000000     0.225200000000     0          
O660     O      0.059060000000     0.000000000000     0.607430000000     0          
C661     C      0.117600000000     0.000000000000     0.667800000000     0          
H662     H      0.090130000000     0.000000000000     0.675610000000     0          
C663     C      0.148000000000     0.000000000000     0.697700000000     0          
H664     H      0.140570000000     0.000000000000     0.725200000000     0          
O665     O      0.392570000000     0.440940000000     0.500000000000     0          
C666     C      0.332200000000     0.382400000000     0.500000000000     0          
H667     H      0.324390000000     0.409870000000     0.500000000000     0          
C668     C      0.302300000000     0.352000000000     0.500000000000     0          
H669     H      0.274800000000     0.359430000000     0.500000000000     0          
O670     O      0.392570000000     0.940940000000     0.000000000000     0          
C671     C      0.332200000000     0.882400000000     0.000000000000     0          
H672     H      0.324390000000     0.909870000000     0.000000000000     0          
C673     C      0.302300000000     0.852000000000     0.000000000000     0          
H674     H      0.274800000000     0.859430000000     0.000000000000     0          
O675     O      0.892570000000     0.440940000000     0.000000000000     0          
C676     C      0.832200000000     0.382400000000     0.000000000000     0          
H677     H      0.824390000000     0.409870000000     0.000000000000     0          
C678     C      0.802300000000     0.352000000000     0.000000000000     0          
H679     H      0.774800000000     0.359430000000     0.000000000000     0          
O680     O      0.892570000000     0.940940000000     0.500000000000     0          
C681     C      0.832200000000     0.882400000000     0.500000000000     0          
H682     H      0.824390000000     0.909870000000     0.500000000000     0          
C683     C      0.802300000000     0.852000000000     0.500000000000     0          
H684     H      0.774800000000     0.859430000000     0.500000000000     0          
O685     O      0.607430000000     0.440940000000     0.500000000000     0          
C686     C      0.667800000000     0.382400000000     0.500000000000     0          
H687     H      0.675610000000     0.409870000000     0.500000000000     0          
C688     C      0.697700000000     0.352000000000     0.500000000000     0          
H689     H      0.725200000000     0.359430000000     0.500000000000     0          
O690     O      0.607430000000     0.940940000000     0.000000000000     0          
C691     C      0.667800000000     0.882400000000     0.000000000000     0          
H692     H      0.675610000000     0.909870000000     0.000000000000     0          
C693     C      0.697700000000     0.852000000000     0.000000000000     0          
H694     H      0.725200000000     0.859430000000     0.000000000000     0          
O695     O      0.107430000000     0.440940000000     0.000000000000     0          
C696     C      0.167800000000     0.382400000000     0.000000000000     0          
H697     H      0.175610000000     0.409870000000     0.000000000000     0          
C698     C      0.197700000000     0.352000000000     0.000000000000     0          
H699     H      0.225200000000     0.359430000000     0.000000000000     0          
O700     O      0.107430000000     0.940940000000     0.500000000000     0          
C701     C      0.167800000000     0.882400000000     0.500000000000     0          
H702     H      0.175610000000     0.909870000000     0.500000000000     0          
C703     C      0.197700000000     0.852000000000     0.500000000000     0          
H704     H      0.225200000000     0.859430000000     0.500000000000     0          
O705     O      0.392570000000     0.559060000000     0.500000000000     0          
C706     C      0.332200000000     0.617600000000     0.500000000000     0          
H707     H      0.324390000000     0.590130000000     0.500000000000     0          
C708     C      0.302300000000     0.648000000000     0.500000000000     0          
H709     H      0.274800000000     0.640570000000     0.500000000000     0          
O710     O      0.392570000000     0.059060000000     0.000000000000     0          
C711     C      0.332200000000     0.117600000000     0.000000000000     0          
H712     H      0.324390000000     0.090130000000     0.000000000000     0          
C713     C      0.302300000000     0.148000000000     0.000000000000     0          
H714     H      0.274800000000     0.140570000000     0.000000000000     0          
O715     O      0.892570000000     0.559060000000     0.000000000000     0          
C716     C      0.832200000000     0.617600000000     0.000000000000     0          
H717     H      0.824390000000     0.590130000000     0.000000000000     0          
C718     C      0.802300000000     0.648000000000     0.000000000000     0          
H719     H      0.774800000000     0.640570000000     0.000000000000     0          
O720     O      0.892570000000     0.059060000000     0.500000000000     0          
C721     C      0.832200000000     0.117600000000     0.500000000000     0          
H722     H      0.824390000000     0.090130000000     0.500000000000     0          
C723     C      0.802300000000     0.148000000000     0.500000000000     0          
H724     H      0.774800000000     0.140570000000     0.500000000000     0          
O725     O      0.607430000000     0.559060000000     0.500000000000     0          
C726     C      0.667800000000     0.617600000000     0.500000000000     0          
H727     H      0.675610000000     0.590130000000     0.500000000000     0          
C728     C      0.697700000000     0.648000000000     0.500000000000     0          
H729     H      0.725200000000     0.640570000000     0.500000000000     0          
O730     O      0.607430000000     0.059060000000     0.000000000000     0          
C731     C      0.667800000000     0.117600000000     0.000000000000     0          
H732     H      0.675610000000     0.090130000000     0.000000000000     0          
C733     C      0.697700000000     0.148000000000     0.000000000000     0          
H734     H      0.725200000000     0.140570000000     0.000000000000     0          
O735     O      0.107430000000     0.559060000000     0.000000000000     0          
C736     C      0.167800000000     0.617600000000     0.000000000000     0          
H737     H      0.175610000000     0.590130000000     0.000000000000     0          
C738     C      0.197700000000     0.648000000000     0.000000000000     0          
H739     H      0.225200000000     0.640570000000     0.000000000000     0          
O740     O      0.107430000000     0.059060000000     0.500000000000     0          
C741     C      0.167800000000     0.117600000000     0.500000000000     0          
H742     H      0.175610000000     0.090130000000     0.500000000000     0          
C743     C      0.197700000000     0.148000000000     0.500000000000     0          
H744     H      0.225200000000     0.140570000000     0.500000000000     0          
O745     O      0.392570000000     0.500000000000     0.559060000000     0          
C746     C      0.332200000000     0.500000000000     0.617600000000     0          
H747     H      0.324390000000     0.500000000000     0.590130000000     0          
C748     C      0.302300000000     0.500000000000     0.648000000000     0          
H749     H      0.274800000000     0.500000000000     0.640570000000     0          
O750     O      0.392570000000     0.000000000000     0.059060000000     0          
C751     C      0.332200000000     0.000000000000     0.117600000000     0          
H752     H      0.324390000000     0.000000000000     0.090130000000     0          
C753     C      0.302300000000     0.000000000000     0.148000000000     0          
H754     H      0.274800000000     0.000000000000     0.140570000000     0          
O755     O      0.892570000000     0.500000000000     0.059060000000     0          
C756     C      0.832200000000     0.500000000000     0.117600000000     0          
H757     H      0.824390000000     0.500000000000     0.090130000000     0          
C758     C      0.802300000000     0.500000000000     0.148000000000     0          
H759     H      0.774800000000     0.500000000000     0.140570000000     0          
O760     O      0.892570000000     0.000000000000     0.559060000000     0          
C761     C      0.832200000000     0.000000000000     0.617600000000     0          
H762     H      0.824390000000     0.000000000000     0.590130000000     0          
C763     C      0.802300000000     0.000000000000     0.648000000000     0          
H764     H      0.774800000000     0.000000000000     0.640570000000     0          
O765     O      0.607430000000     0.500000000000     0.559060000000     0          
C766     C      0.667800000000     0.500000000000     0.617600000000     0          
H767     H      0.675610000000     0.500000000000     0.590130000000     0          
C768     C      0.697700000000     0.500000000000     0.648000000000     0          
H769     H      0.725200000000     0.500000000000     0.640570000000     0          
O770     O      0.607430000000     0.000000000000     0.059060000000     0          
C771     C      0.667800000000     0.000000000000     0.117600000000     0          
H772     H      0.675610000000     0.000000000000     0.090130000000     0          
C773     C      0.697700000000     0.000000000000     0.148000000000     0          
H774     H      0.725200000000     0.000000000000     0.140570000000     0          
O775     O      0.107430000000     0.500000000000     0.059060000000     0          
C776     C      0.167800000000     0.500000000000     0.117600000000     0          
H777     H      0.175610000000     0.500000000000     0.090130000000     0          
C778     C      0.197700000000     0.500000000000     0.148000000000     0          
H779     H      0.225200000000     0.500000000000     0.140570000000     0          
O780     O      0.107430000000     0.000000000000     0.559060000000     0          
C781     C      0.167800000000     0.000000000000     0.617600000000     0          
H782     H      0.175610000000     0.000000000000     0.590130000000     0          
C783     C      0.197700000000     0.000000000000     0.648000000000     0          
H784     H      0.225200000000     0.000000000000     0.640570000000     0          
O785     O      0.392570000000     0.500000000000     0.440940000000     0          
C786     C      0.332200000000     0.500000000000     0.382400000000     0          
H787     H      0.324390000000     0.500000000000     0.409870000000     0          
C788     C      0.302300000000     0.500000000000     0.352000000000     0          
H789     H      0.274800000000     0.500000000000     0.359430000000     0          
O790     O      0.392570000000     0.000000000000     0.940940000000     0          
C791     C      0.332200000000     0.000000000000     0.882400000000     0          
H792     H      0.324390000000     0.000000000000     0.909870000000     0          
C793     C      0.302300000000     0.000000000000     0.852000000000     0          
H794     H      0.274800000000     0.000000000000     0.859430000000     0          
O795     O      0.892570000000     0.500000000000     0.940940000000     0          
C796     C      0.832200000000     0.500000000000     0.882400000000     0          
H797     H      0.824390000000     0.500000000000     0.909870000000     0          
C798     C      0.802300000000     0.500000000000     0.852000000000     0          
H799     H      0.774800000000     0.500000000000     0.859430000000     0          
O800     O      0.892570000000     0.000000000000     0.440940000000     0          
C801     C      0.832200000000     0.000000000000     0.382400000000     0          
H802     H      0.824390000000     0.000000000000     0.409870000000     0          
C803     C      0.802300000000     0.000000000000     0.352000000000     0          
H804     H      0.774800000000     0.000000000000     0.359430000000     0          
O805     O      0.607430000000     0.500000000000     0.440940000000     0          
C806     C      0.667800000000     0.500000000000     0.382400000000     0          
H807     H      0.675610000000     0.500000000000     0.409870000000     0          
C808     C      0.697700000000     0.500000000000     0.352000000000     0          
H809     H      0.725200000000     0.500000000000     0.359430000000     0          
O810     O      0.607430000000     0.000000000000     0.940940000000     0          
C811     C      0.667800000000     0.000000000000     0.882400000000     0          
H812     H      0.675610000000     0.000000000000     0.909870000000     0          
C813     C      0.697700000000     0.000000000000     0.852000000000     0          
H814     H      0.725200000000     0.000000000000     0.859430000000     0          
O815     O      0.107430000000     0.500000000000     0.940940000000     0          
C816     C      0.167800000000     0.500000000000     0.882400000000     0          
H817     H      0.175610000000     0.500000000000     0.909870000000     0          
C818     C      0.197700000000     0.500000000000     0.852000000000     0          
H819     H      0.225200000000     0.500000000000     0.859430000000     0          
O820     O      0.107430000000     0.000000000000     0.440940000000     0          
C821     C      0.167800000000     0.000000000000     0.382400000000     0          
H822     H      0.175610000000     0.000000000000     0.409870000000     0          
C823     C      0.197700000000     0.000000000000     0.352000000000     0          
H824     H      0.225200000000     0.000000000000     0.359430000000     0          
O825     O      0.500000000000     0.440940000000     0.607430000000     0          
C826     C      0.500000000000     0.382400000000     0.667800000000     0          
H827     H      0.500000000000     0.409870000000     0.675610000000     0          
C828     C      0.500000000000     0.352000000000     0.697700000000     0          
H829     H      0.500000000000     0.359430000000     0.725200000000     0          
O830     O      0.500000000000     0.940940000000     0.107430000000     0          
C831     C      0.500000000000     0.882400000000     0.167800000000     0          
H832     H      0.500000000000     0.909870000000     0.175610000000     0          
C833     C      0.500000000000     0.852000000000     0.197700000000     0          
H834     H      0.500000000000     0.859430000000     0.225200000000     0          
O835     O      0.000000000000     0.440940000000     0.107430000000     0          
C836     C      0.000000000000     0.382400000000     0.167800000000     0          
H837     H      0.000000000000     0.409870000000     0.175610000000     0          
C838     C      0.000000000000     0.352000000000     0.197700000000     0          
H839     H      0.000000000000     0.359430000000     0.225200000000     0          
O840     O      0.000000000000     0.940940000000     0.607430000000     0          
C841     C      0.000000000000     0.882400000000     0.667800000000     0          
H842     H      0.000000000000     0.909870000000     0.675610000000     0          
C843     C      0.000000000000     0.852000000000     0.697700000000     0          
H844     H      0.000000000000     0.859430000000     0.725200000000     0          
O845     O      0.500000000000     0.440940000000     0.392570000000     0          
C846     C      0.500000000000     0.382400000000     0.332200000000     0          
H847     H      0.500000000000     0.409870000000     0.324390000000     0          
C848     C      0.500000000000     0.352000000000     0.302300000000     0          
H849     H      0.500000000000     0.359430000000     0.274800000000     0          
O850     O      0.500000000000     0.940940000000     0.892570000000     0          
C851     C      0.500000000000     0.882400000000     0.832200000000     0          
H852     H      0.500000000000     0.909870000000     0.824390000000     0          
C853     C      0.500000000000     0.852000000000     0.802300000000     0          
H854     H      0.500000000000     0.859430000000     0.774800000000     0          
O855     O      0.000000000000     0.440940000000     0.892570000000     0          
C856     C      0.000000000000     0.382400000000     0.832200000000     0          
H857     H      0.000000000000     0.409870000000     0.824390000000     0          
C858     C      0.000000000000     0.352000000000     0.802300000000     0          
H859     H      0.000000000000     0.359430000000     0.774800000000     0          
O860     O      0.000000000000     0.940940000000     0.392570000000     0          
C861     C      0.000000000000     0.882400000000     0.332200000000     0          
H862     H      0.000000000000     0.909870000000     0.324390000000     0          
C863     C      0.000000000000     0.852000000000     0.302300000000     0          
H864     H      0.000000000000     0.859430000000     0.274800000000     0          
O865     O      0.500000000000     0.559060000000     0.607430000000     0          
C866     C      0.500000000000     0.617600000000     0.667800000000     0          
H867     H      0.500000000000     0.590130000000     0.675610000000     0          
C868     C      0.500000000000     0.648000000000     0.697700000000     0          
H869     H      0.500000000000     0.640570000000     0.725200000000     0          
O870     O      0.500000000000     0.059060000000     0.107430000000     0          
C871     C      0.500000000000     0.117600000000     0.167800000000     0          
H872     H      0.500000000000     0.090130000000     0.175610000000     0          
C873     C      0.500000000000     0.148000000000     0.197700000000     0          
H874     H      0.500000000000     0.140570000000     0.225200000000     0          
O875     O      0.000000000000     0.559060000000     0.107430000000     0          
C876     C      0.000000000000     0.617600000000     0.167800000000     0          
H877     H      0.000000000000     0.590130000000     0.175610000000     0          
C878     C      0.000000000000     0.648000000000     0.197700000000     0          
H879     H      0.000000000000     0.640570000000     0.225200000000     0          
O880     O      0.000000000000     0.059060000000     0.607430000000     0          
C881     C      0.000000000000     0.117600000000     0.667800000000     0          
H882     H      0.000000000000     0.090130000000     0.675610000000     0          
C883     C      0.000000000000     0.148000000000     0.697700000000     0          
H884     H      0.000000000000     0.140570000000     0.725200000000     0          
O885     O      0.500000000000     0.559060000000     0.392570000000     0          
C886     C      0.500000000000     0.617600000000     0.332200000000     0          
H887     H      0.500000000000     0.590130000000     0.324390000000     0          
C888     C      0.500000000000     0.648000000000     0.302300000000     0          
H889     H      0.500000000000     0.640570000000     0.274800000000     0          
O890     O      0.500000000000     0.059060000000     0.892570000000     0          
C891     C      0.500000000000     0.117600000000     0.832200000000     0          
H892     H      0.500000000000     0.090130000000     0.824390000000     0          
C893     C      0.500000000000     0.148000000000     0.802300000000     0          
H894     H      0.500000000000     0.140570000000     0.774800000000     0          
O895     O      0.000000000000     0.559060000000     0.892570000000     0          
C896     C      0.000000000000     0.617600000000     0.832200000000     0          
H897     H      0.000000000000     0.590130000000     0.824390000000     0          
C898     C      0.000000000000     0.648000000000     0.802300000000     0          
H899     H      0.000000000000     0.640570000000     0.774800000000     0          
O900     O      0.000000000000     0.059060000000     0.392570000000     0          
C901     C      0.000000000000     0.117600000000     0.332200000000     0          
H902     H      0.000000000000     0.090130000000     0.324390000000     0          
C903     C      0.000000000000     0.148000000000     0.302300000000     0          
H904     H      0.000000000000     0.140570000000     0.274800000000     0          
O905     O      0.440940000000     0.392570000000     0.500000000000     0          
C906     C      0.382400000000     0.332200000000     0.500000000000     0          
H907     H      0.409870000000     0.324390000000     0.500000000000     0          
C908     C      0.352000000000     0.302300000000     0.500000000000     0          
H909     H      0.359430000000     0.274800000000     0.500000000000     0          
O910     O      0.440940000000     0.892570000000     0.000000000000     0          
C911     C      0.382400000000     0.832200000000     0.000000000000     0          
H912     H      0.409870000000     0.824390000000     0.000000000000     0          
C913     C      0.352000000000     0.802300000000     0.000000000000     0          
H914     H      0.359430000000     0.774800000000     0.000000000000     0          
O915     O      0.940940000000     0.392570000000     0.000000000000     0          
C916     C      0.882400000000     0.332200000000     0.000000000000     0          
H917     H      0.909870000000     0.324390000000     0.000000000000     0          
C918     C      0.852000000000     0.302300000000     0.000000000000     0          
H919     H      0.859430000000     0.274800000000     0.000000000000     0          
O920     O      0.940940000000     0.892570000000     0.500000000000     0          
C921     C      0.882400000000     0.832200000000     0.500000000000     0          
H922     H      0.909870000000     0.824390000000     0.500000000000     0          
C923     C      0.852000000000     0.802300000000     0.500000000000     0          
H924     H      0.859430000000     0.774800000000     0.500000000000     0          
O925     O      0.440940000000     0.607430000000     0.500000000000     0          
C926     C      0.382400000000     0.667800000000     0.500000000000     0          
H927     H      0.409870000000     0.675610000000     0.500000000000     0          
C928     C      0.352000000000     0.697700000000     0.500000000000     0          
H929     H      0.359430000000     0.725200000000     0.500000000000     0          
O930     O      0.440940000000     0.107430000000     0.000000000000     0          
C931     C      0.382400000000     0.167800000000     0.000000000000     0          
H932     H      0.409870000000     0.175610000000     0.000000000000     0          
C933     C      0.352000000000     0.197700000000     0.000000000000     0          
H934     H      0.359430000000     0.225200000000     0.000000000000     0          
O935     O      0.940940000000     0.607430000000     0.000000000000     0          
C936     C      0.882400000000     0.667800000000     0.000000000000     0          
H937     H      0.909870000000     0.675610000000     0.000000000000     0          
C938     C      0.852000000000     0.697700000000     0.000000000000     0          
H939     H      0.859430000000     0.725200000000     0.000000000000     0          
O940     O      0.940940000000     0.107430000000     0.500000000000     0          
C941     C      0.882400000000     0.167800000000     0.500000000000     0          
H942     H      0.909870000000     0.175610000000     0.500000000000     0          
C943     C      0.852000000000     0.197700000000     0.500000000000     0          
H944     H      0.859430000000     0.225200000000     0.500000000000     0          
O945     O      0.559060000000     0.392570000000     0.500000000000     0          
C946     C      0.617600000000     0.332200000000     0.500000000000     0          
H947     H      0.590130000000     0.324390000000     0.500000000000     0          
C948     C      0.648000000000     0.302300000000     0.500000000000     0          
H949     H      0.640570000000     0.274800000000     0.500000000000     0          
O950     O      0.559060000000     0.892570000000     0.000000000000     0          
C951     C      0.617600000000     0.832200000000     0.000000000000     0          
H952     H      0.590130000000     0.824390000000     0.000000000000     0          
C953     C      0.648000000000     0.802300000000     0.000000000000     0          
H954     H      0.640570000000     0.774800000000     0.000000000000     0          
O955     O      0.059060000000     0.392570000000     0.000000000000     0          
C956     C      0.117600000000     0.332200000000     0.000000000000     0          
H957     H      0.090130000000     0.324390000000     0.000000000000     0          
C958     C      0.148000000000     0.302300000000     0.000000000000     0          
H959     H      0.140570000000     0.274800000000     0.000000000000     0          
O960     O      0.059060000000     0.892570000000     0.500000000000     0          
C961     C      0.117600000000     0.832200000000     0.500000000000     0          
H962     H      0.090130000000     0.824390000000     0.500000000000     0          
C963     C      0.148000000000     0.802300000000     0.500000000000     0          
H964     H      0.140570000000     0.774800000000     0.500000000000     0          
O965     O      0.559060000000     0.607430000000     0.500000000000     0          
C966     C      0.617600000000     0.667800000000     0.500000000000     0          
H967     H      0.590130000000     0.675610000000     0.500000000000     0          
C968     C      0.648000000000     0.697700000000     0.500000000000     0          
H969     H      0.640570000000     0.725200000000     0.500000000000     0          
O970     O      0.559060000000     0.107430000000     0.000000000000     0          
C971     C      0.617600000000     0.167800000000     0.000000000000     0          
H972     H      0.590130000000     0.175610000000     0.000000000000     0          
C973     C      0.648000000000     0.197700000000     0.000000000000     0          
H974     H      0.640570000000     0.225200000000     0.000000000000     0          
O975     O      0.059060000000     0.607430000000     0.000000000000     0          
C976     C      0.117600000000     0.667800000000     0.000000000000     0          
H977     H      0.090130000000     0.675610000000     0.000000000000     0          
C978     C      0.148000000000     0.697700000000     0.000000000000     0          
H979     H      0.140570000000     0.725200000000     0.000000000000     0          
O980     O      0.059060000000     0.107430000000     0.500000000000     0          
C981     C      0.117600000000     0.167800000000     0.500000000000     0          
H982     H      0.090130000000     0.175610000000     0.500000000000     0          
C983     C      0.148000000000     0.197700000000     0.500000000000     0          
H984     H      0.140570000000     0.225200000000     0.500000000000     0          
C985     C      0.500000000000     0.404400000000     0.404400000000     0          
C986     C      0.500000000000     0.372470000000     0.372470000000     0          
C987     C      0.500000000000     0.312300000000     0.312300000000     0          
C988     C      0.500000000000     0.280300000000     0.280300000000     0          
C989     C      0.500000000000     0.904400000000     0.904400000000     0          
C990     C      0.500000000000     0.872470000000     0.872470000000     0          
C991     C      0.500000000000     0.812300000000     0.812300000000     0          
C992     C      0.500000000000     0.780300000000     0.780300000000     0          
C993     C      0.000000000000     0.404400000000     0.904400000000     0          
C994     C      0.000000000000     0.372470000000     0.872470000000     0          
C995     C      0.000000000000     0.312300000000     0.812300000000     0          
C996     C      0.000000000000     0.280300000000     0.780300000000     0          
C997     C      0.000000000000     0.904400000000     0.404400000000     0          
C998     C      0.000000000000     0.872470000000     0.372470000000     0          
C999     C      0.000000000000     0.812300000000     0.312300000000     0          
C1000    C      0.000000000000     0.780300000000     0.280300000000     0          
C1001    C      0.500000000000     0.595600000000     0.404400000000     0          
C1002    C      0.500000000000     0.627530000000     0.372470000000     0          
C1003    C      0.500000000000     0.687700000000     0.312300000000     0          
C1004    C      0.500000000000     0.719700000000     0.280300000000     0          
C1005    C      0.500000000000     0.095600000000     0.904400000000     0          
C1006    C      0.500000000000     0.127530000000     0.872470000000     0          
C1007    C      0.500000000000     0.187700000000     0.812300000000     0          
C1008    C      0.500000000000     0.219700000000     0.780300000000     0          
C1009    C      0.000000000000     0.595600000000     0.904400000000     0          
C1010    C      0.000000000000     0.627530000000     0.872470000000     0          
C1011    C      0.000000000000     0.687700000000     0.812300000000     0          
C1012    C      0.000000000000     0.719700000000     0.780300000000     0          
C1013    C      0.000000000000     0.095600000000     0.404400000000     0          
C1014    C      0.000000000000     0.127530000000     0.372470000000     0          
C1015    C      0.000000000000     0.187700000000     0.312300000000     0          
C1016    C      0.000000000000     0.219700000000     0.280300000000     0          
C1017    C      0.500000000000     0.404400000000     0.595600000000     0          
C1018    C      0.500000000000     0.372470000000     0.627530000000     0          
C1019    C      0.500000000000     0.312300000000     0.687700000000     0          
C1020    C      0.500000000000     0.280300000000     0.719700000000     0          
C1021    C      0.500000000000     0.904400000000     0.095600000000     0          
C1022    C      0.500000000000     0.872470000000     0.127530000000     0          
C1023    C      0.500000000000     0.812300000000     0.187700000000     0          
C1024    C      0.500000000000     0.780300000000     0.219700000000     0          
C1025    C      0.000000000000     0.404400000000     0.095600000000     0          
C1026    C      0.000000000000     0.372470000000     0.127530000000     0          
C1027    C      0.000000000000     0.312300000000     0.187700000000     0          
C1028    C      0.000000000000     0.280300000000     0.219700000000     0          
C1029    C      0.000000000000     0.904400000000     0.595600000000     0          
C1030    C      0.000000000000     0.872470000000     0.627530000000     0          
C1031    C      0.000000000000     0.812300000000     0.687700000000     0          
C1032    C      0.000000000000     0.780300000000     0.719700000000     0          
C1033    C      0.500000000000     0.595600000000     0.595600000000     0          
C1034    C      0.500000000000     0.627530000000     0.627530000000     0          
C1035    C      0.500000000000     0.687700000000     0.687700000000     0          
C1036    C      0.500000000000     0.719700000000     0.719700000000     0          
C1037    C      0.500000000000     0.095600000000     0.095600000000     0          
C1038    C      0.500000000000     0.127530000000     0.127530000000     0          
C1039    C      0.500000000000     0.187700000000     0.187700000000     0          
C1040    C      0.500000000000     0.219700000000     0.219700000000     0          
C1041    C      0.000000000000     0.595600000000     0.095600000000     0          
C1042    C      0.000000000000     0.627530000000     0.127530000000     0          
C1043    C      0.000000000000     0.687700000000     0.187700000000     0          
C1044    C      0.000000000000     0.719700000000     0.219700000000     0          
C1045    C      0.000000000000     0.095600000000     0.595600000000     0          
C1046    C      0.000000000000     0.127530000000     0.627530000000     0          
C1047    C      0.000000000000     0.187700000000     0.687700000000     0          
C1048    C      0.000000000000     0.219700000000     0.719700000000     0          
C1049    C      0.404400000000     0.500000000000     0.404400000000     0          
C1050    C      0.372470000000     0.500000000000     0.372470000000     0          
C1051    C      0.312300000000     0.500000000000     0.312300000000     0          
C1052    C      0.280300000000     0.500000000000     0.280300000000     0          
C1053    C      0.404400000000     0.000000000000     0.904400000000     0          
C1054    C      0.372470000000     0.000000000000     0.872470000000     0          
C1055    C      0.312300000000     0.000000000000     0.812300000000     0          
C1056    C      0.280300000000     0.000000000000     0.780300000000     0          
C1057    C      0.904400000000     0.500000000000     0.904400000000     0          
C1058    C      0.872470000000     0.500000000000     0.872470000000     0          
C1059    C      0.812300000000     0.500000000000     0.812300000000     0          
C1060    C      0.780300000000     0.500000000000     0.780300000000     0          
C1061    C      0.904400000000     0.000000000000     0.404400000000     0          
C1062    C      0.872470000000     0.000000000000     0.372470000000     0          
C1063    C      0.812300000000     0.000000000000     0.312300000000     0          
C1064    C      0.780300000000     0.000000000000     0.280300000000     0          
C1065    C      0.404400000000     0.500000000000     0.595600000000     0          
C1066    C      0.372470000000     0.500000000000     0.627530000000     0          
C1067    C      0.312300000000     0.500000000000     0.687700000000     0          
C1068    C      0.280300000000     0.500000000000     0.719700000000     0          
C1069    C      0.404400000000     0.000000000000     0.095600000000     0          
C1070    C      0.372470000000     0.000000000000     0.127530000000     0          
C1071    C      0.312300000000     0.000000000000     0.187700000000     0          
C1072    C      0.280300000000     0.000000000000     0.219700000000     0          
C1073    C      0.904400000000     0.500000000000     0.095600000000     0          
C1074    C      0.872470000000     0.500000000000     0.127530000000     0          
C1075    C      0.812300000000     0.500000000000     0.187700000000     0          
C1076    C      0.780300000000     0.500000000000     0.219700000000     0          
C1077    C      0.904400000000     0.000000000000     0.595600000000     0          
C1078    C      0.872470000000     0.000000000000     0.627530000000     0          
C1079    C      0.812300000000     0.000000000000     0.687700000000     0          
C1080    C      0.780300000000     0.000000000000     0.719700000000     0          
C1081    C      0.595600000000     0.500000000000     0.404400000000     0          
C1082    C      0.627530000000     0.500000000000     0.372470000000     0          
C1083    C      0.687700000000     0.500000000000     0.312300000000     0          
C1084    C      0.719700000000     0.500000000000     0.280300000000     0          
C1085    C      0.595600000000     0.000000000000     0.904400000000     0          
C1086    C      0.627530000000     0.000000000000     0.872470000000     0          
C1087    C      0.687700000000     0.000000000000     0.812300000000     0          
C1088    C      0.719700000000     0.000000000000     0.780300000000     0          
C1089    C      0.095600000000     0.500000000000     0.904400000000     0          
C1090    C      0.127530000000     0.500000000000     0.872470000000     0          
C1091    C      0.187700000000     0.500000000000     0.812300000000     0          
C1092    C      0.219700000000     0.500000000000     0.780300000000     0          
C1093    C      0.095600000000     0.000000000000     0.404400000000     0          
C1094    C      0.127530000000     0.000000000000     0.372470000000     0          
C1095    C      0.187700000000     0.000000000000     0.312300000000     0          
C1096    C      0.219700000000     0.000000000000     0.280300000000     0          
C1097    C      0.595600000000     0.500000000000     0.595600000000     0          
C1098    C      0.627530000000     0.500000000000     0.627530000000     0          
C1099    C      0.687700000000     0.500000000000     0.687700000000     0          
C1100    C      0.719700000000     0.500000000000     0.719700000000     0          
C1101    C      0.595600000000     0.000000000000     0.095600000000     0          
C1102    C      0.627530000000     0.000000000000     0.127530000000     0          
C1103    C      0.687700000000     0.000000000000     0.187700000000     0          
C1104    C      0.719700000000     0.000000000000     0.219700000000     0          
C1105    C      0.095600000000     0.500000000000     0.095600000000     0          
C1106    C      0.127530000000     0.500000000000     0.127530000000     0          
C1107    C      0.187700000000     0.500000000000     0.187700000000     0          
C1108    C      0.219700000000     0.500000000000     0.219700000000     0          
C1109    C      0.095600000000     0.000000000000     0.595600000000     0          
C1110    C      0.127530000000     0.000000000000     0.627530000000     0          
C1111    C      0.187700000000     0.000000000000     0.687700000000     0          
C1112    C      0.219700000000     0.000000000000     0.719700000000     0          
C1113    C      0.404400000000     0.404400000000     0.500000000000     0          
C1114    C      0.372470000000     0.372470000000     0.500000000000     0          
C1115    C      0.312300000000     0.312300000000     0.500000000000     0          
C1116    C      0.280300000000     0.280300000000     0.500000000000     0          
C1117    C      0.404400000000     0.904400000000     0.000000000000     0          
C1118    C      0.372470000000     0.872470000000     0.000000000000     0          
C1119    C      0.312300000000     0.812300000000     0.000000000000     0          
C1120    C      0.280300000000     0.780300000000     0.000000000000     0          
C1121    C      0.904400000000     0.404400000000     0.000000000000     0          
C1122    C      0.872470000000     0.372470000000     0.000000000000     0          
C1123    C      0.812300000000     0.312300000000     0.000000000000     0          
C1124    C      0.780300000000     0.280300000000     0.000000000000     0          
C1125    C      0.904400000000     0.904400000000     0.500000000000     0          
C1126    C      0.872470000000     0.872470000000     0.500000000000     0          
C1127    C      0.812300000000     0.812300000000     0.500000000000     0          
C1128    C      0.780300000000     0.780300000000     0.500000000000     0          
C1129    C      0.595600000000     0.404400000000     0.500000000000     0          
C1130    C      0.627530000000     0.372470000000     0.500000000000     0          
C1131    C      0.687700000000     0.312300000000     0.500000000000     0          
C1132    C      0.719700000000     0.280300000000     0.500000000000     0          
C1133    C      0.595600000000     0.904400000000     0.000000000000     0          
C1134    C      0.627530000000     0.872470000000     0.000000000000     0          
C1135    C      0.687700000000     0.812300000000     0.000000000000     0          
C1136    C      0.719700000000     0.780300000000     0.000000000000     0          
C1137    C      0.095600000000     0.404400000000     0.000000000000     0          
C1138    C      0.127530000000     0.372470000000     0.000000000000     0          
C1139    C      0.187700000000     0.312300000000     0.000000000000     0          
C1140    C      0.219700000000     0.280300000000     0.000000000000     0          
C1141    C      0.095600000000     0.904400000000     0.500000000000     0          
C1142    C      0.127530000000     0.872470000000     0.500000000000     0          
C1143    C      0.187700000000     0.812300000000     0.500000000000     0          
C1144    C      0.219700000000     0.780300000000     0.500000000000     0          
C1145    C      0.404400000000     0.595600000000     0.500000000000     0          
C1146    C      0.372470000000     0.627530000000     0.500000000000     0          
C1147    C      0.312300000000     0.687700000000     0.500000000000     0          
C1148    C      0.280300000000     0.719700000000     0.500000000000     0          
C1149    C      0.404400000000     0.095600000000     0.000000000000     0          
C1150    C      0.372470000000     0.127530000000     0.000000000000     0          
C1151    C      0.312300000000     0.187700000000     0.000000000000     0          
C1152    C      0.280300000000     0.219700000000     0.000000000000     0          
C1153    C      0.904400000000     0.595600000000     0.000000000000     0          
C1154    C      0.872470000000     0.627530000000     0.000000000000     0          
C1155    C      0.812300000000     0.687700000000     0.000000000000     0          
C1156    C      0.780300000000     0.719700000000     0.000000000000     0          
C1157    C      0.904400000000     0.095600000000     0.500000000000     0          
C1158    C      0.872470000000     0.127530000000     0.500000000000     0          
C1159    C      0.812300000000     0.187700000000     0.500000000000     0          
C1160    C      0.780300000000     0.219700000000     0.500000000000     0          
C1161    C      0.595600000000     0.595600000000     0.500000000000     0          
C1162    C      0.627530000000     0.627530000000     0.500000000000     0          
C1163    C      0.687700000000     0.687700000000     0.500000000000     0          
C1164    C      0.719700000000     0.719700000000     0.500000000000     0          
C1165    C      0.595600000000     0.095600000000     0.000000000000     0          
C1166    C      0.627530000000     0.127530000000     0.000000000000     0          
C1167    C      0.687700000000     0.187700000000     0.000000000000     0          
C1168    C      0.719700000000     0.219700000000     0.000000000000     0          
C1169    C      0.095600000000     0.595600000000     0.000000000000     0          
C1170    C      0.127530000000     0.627530000000     0.000000000000     0          
C1171    C      0.187700000000     0.687700000000     0.000000000000     0          
C1172    C      0.219700000000     0.719700000000     0.000000000000     0          
C1173    C      0.095600000000     0.095600000000     0.500000000000     0          
C1174    C      0.127530000000     0.127530000000     0.500000000000     0          
C1175    C      0.187700000000     0.187700000000     0.500000000000     0          
C1176    C      0.219700000000     0.219700000000     0.500000000000     0          
O1177    O      0.462730000000     0.462730000000     0.537270000000     0          
H1178    H      0.447900000000     0.447900000000     0.552100000000     0          
H1179    H      0.477500000000     0.477500000000     0.522500000000     0          
O1180    O      0.462730000000     0.962730000000     0.037270000000     0          
H1181    H      0.447900000000     0.947900000000     0.052100000000     0          
H1182    H      0.477500000000     0.977500000000     0.022500000000     0          
O1183    O      0.962730000000     0.462730000000     0.037270000000     0          
H1184    H      0.947900000000     0.447900000000     0.052100000000     0          
H1185    H      0.977500000000     0.477500000000     0.022500000000     0          
O1186    O      0.962730000000     0.962730000000     0.537270000000     0          
H1187    H      0.947900000000     0.947900000000     0.552100000000     0          
H1188    H      0.977500000000     0.977500000000     0.522500000000     0          
O1189    O      0.537270000000     0.537270000000     0.537270000000     0          
H1190    H      0.552100000000     0.552100000000     0.552100000000     0          
H1191    H      0.522500000000     0.522500000000     0.522500000000     0          
O1192    O      0.537270000000     0.037270000000     0.037270000000     0          
H1193    H      0.552100000000     0.052100000000     0.052100000000     0          
H1194    H      0.522500000000     0.022500000000     0.022500000000     0          
O1195    O      0.037270000000     0.537270000000     0.037270000000     0          
H1196    H      0.052100000000     0.552100000000     0.052100000000     0          
H1197    H      0.022500000000     0.522500000000     0.022500000000     0          
O1198    O      0.037270000000     0.037270000000     0.537270000000     0          
H1199    H      0.052100000000     0.052100000000     0.552100000000     0          
H1200    H      0.022500000000     0.022500000000     0.522500000000     0          
O1201    O      0.537270000000     0.462730000000     0.462730000000     0          
H1202    H      0.552100000000     0.447900000000     0.447900000000     0          
H1203    H      0.522500000000     0.477500000000     0.477500000000     0          
O1204    O      0.537270000000     0.962730000000     0.962730000000     0          
H1205    H      0.552100000000     0.947900000000     0.947900000000     0          
H1206    H      0.522500000000     0.977500000000     0.977500000000     0          
O1207    O      0.037270000000     0.462730000000     0.962730000000     0          
H1208    H      0.052100000000     0.447900000000     0.947900000000     0          
H1209    H      0.022500000000     0.477500000000     0.977500000000     0          
O1210    O      0.037270000000     0.962730000000     0.462730000000     0          
H1211    H      0.052100000000     0.947900000000     0.447900000000     0          
H1212    H      0.022500000000     0.977500000000     0.477500000000     0          
O1213    O      0.462730000000     0.537270000000     0.462730000000     0          
H1214    H      0.447900000000     0.552100000000     0.447900000000     0          
H1215    H      0.477500000000     0.522500000000     0.477500000000     0          
O1216    O      0.462730000000     0.037270000000     0.962730000000     0          
H1217    H      0.447900000000     0.052100000000     0.947900000000     0          
H1218    H      0.477500000000     0.022500000000     0.977500000000     0          
O1219    O      0.962730000000     0.537270000000     0.962730000000     0          
H1220    H      0.947900000000     0.552100000000     0.947900000000     0          
H1221    H      0.977500000000     0.522500000000     0.977500000000     0          
O1222    O      0.962730000000     0.037270000000     0.462730000000     0          
H1223    H      0.947900000000     0.052100000000     0.447900000000     0          
H1224    H      0.977500000000     0.022500000000     0.477500000000     0          
O1225    O      0.462730000000     0.462730000000     0.462730000000     0          
H1226    H      0.447900000000     0.447900000000     0.447900000000     0          
H1227    H      0.477500000000     0.477500000000     0.477500000000     0          
O1228    O      0.462730000000     0.962730000000     0.962730000000     0          
H1229    H      0.447900000000     0.947900000000     0.947900000000     0          
H1230    H      0.477500000000     0.977500000000     0.977500000000     0          
O1231    O      0.962730000000     0.462730000000     0.962730000000     0          
H1232    H      0.947900000000     0.447900000000     0.947900000000     0          
H1233    H      0.977500000000     0.477500000000     0.977500000000     0          
O1234    O      0.962730000000     0.962730000000     0.462730000000     0          
H1235    H      0.947900000000     0.947900000000     0.447900000000     0          
H1236    H      0.977500000000     0.977500000000     0.477500000000     0          
O1237    O      0.537270000000     0.537270000000     0.462730000000     0          
H1238    H      0.552100000000     0.552100000000     0.447900000000     0          
H1239    H      0.522500000000     0.522500000000     0.477500000000     0          
O1240    O      0.537270000000     0.037270000000     0.962730000000     0          
H1241    H      0.552100000000     0.052100000000     0.947900000000     0          
H1242    H      0.522500000000     0.022500000000     0.977500000000     0          
O1243    O      0.037270000000     0.537270000000     0.962730000000     0          
H1244    H      0.052100000000     0.552100000000     0.947900000000     0          
H1245    H      0.022500000000     0.522500000000     0.977500000000     0          
O1246    O      0.037270000000     0.037270000000     0.462730000000     0          
H1247    H      0.052100000000     0.052100000000     0.447900000000     0          
H1248    H      0.022500000000     0.022500000000     0.477500000000     0          
O1249    O      0.462730000000     0.537270000000     0.537270000000     0          
H1250    H      0.447900000000     0.552100000000     0.552100000000     0          
H1251    H      0.477500000000     0.522500000000     0.522500000000     0          
O1252    O      0.462730000000     0.037270000000     0.037270000000     0          
H1253    H      0.447900000000     0.052100000000     0.052100000000     0          
H1254    H      0.477500000000     0.022500000000     0.022500000000     0          
O1255    O      0.962730000000     0.537270000000     0.037270000000     0          
H1256    H      0.947900000000     0.552100000000     0.052100000000     0          
H1257    H      0.977500000000     0.522500000000     0.022500000000     0          
O1258    O      0.962730000000     0.037270000000     0.537270000000     0          
H1259    H      0.947900000000     0.052100000000     0.552100000000     0          
H1260    H      0.977500000000     0.022500000000     0.522500000000     0          
O1261    O      0.537270000000     0.462730000000     0.537270000000     0          
H1262    H      0.552100000000     0.447900000000     0.552100000000     0          
H1263    H      0.522500000000     0.477500000000     0.522500000000     0          
O1264    O      0.537270000000     0.962730000000     0.037270000000     0          
H1265    H      0.552100000000     0.947900000000     0.052100000000     0          
H1266    H      0.522500000000     0.977500000000     0.022500000000     0          
O1267    O      0.037270000000     0.462730000000     0.037270000000     0          
H1268    H      0.052100000000     0.447900000000     0.052100000000     0          
H1269    H      0.022500000000     0.477500000000     0.022500000000     0          
O1270    O      0.037270000000     0.962730000000     0.537270000000     0          
H1271    H      0.052100000000     0.947900000000     0.552100000000     0          
H1272    H      0.022500000000     0.977500000000     0.522500000000     0          


