data_BUNKUS

_audit_creation_method RASPA-1.0
_audit_creation_date 2020-11-2
_audit_author_name 'Rocio Bueno-Perez'

_cell_length_a    49.92
_cell_length_b    49.92
_cell_length_c    16.195
_cell_angle_alpha 90
_cell_angle_beta  90
_cell_angle_gamma 120
_cell_volume      34951.1

_symmetry_cell_setting          triclinic
_symmetry_space_group_name_Hall 'P 1'
_symmetry_space_group_name_H-M  'P 1'
_symmetry_Int_Tables_number     1

_symmetry_equiv_pos_as_xyz 'x,y,z'

loop_
_atom_site_label
_atom_site_type_symbol
_atom_site_fract_x
_atom_site_fract_y
_atom_site_fract_z
_atom_site_charge
O1       O      0.516810000000     0.081570000000     0.072410000000     0          
O2       O      0.477080000000     0.046670000000     0.147810000000     0          
C3       C      0.497280000000     0.075730000000     0.132950000000     0          
C4       C      0.499150000000     0.102840000000     0.182220000000     0          
C5       C      0.473760000000     0.098870000000     0.227500000000     0          
C6       C      0.475450000000     0.123460000000     0.272180000000     0          
C7       C      0.502230000000     0.152260000000     0.272690000000     0          
C8       C      0.527930000000     0.155970000000     0.226280000000     0          
C9       C      0.526230000000     0.131390000000     0.181610000000     0          
C10      C      0.503360000000     0.178340000000     0.321500000000     0          
C11      C      0.476180000000     0.178520000000     0.339020000000     0          
C12      C      0.477220000000     0.202690000000     0.384250000000     0          
C13      C      0.505410000000     0.226700000000     0.412020000000     0          
C14      C      0.532610000000     0.226500000000     0.394460000000     0          
C15      C      0.531570000000     0.202330000000     0.349220000000     0          
H16      H      0.454270000000     0.078340000000     0.227940000000     0          
H17      H      0.457180000000     0.120600000000     0.304750000000     0          
H18      H      0.547520000000     0.176420000000     0.225450000000     0          
H19      H      0.544500000000     0.134250000000     0.149030000000     0          
H20      H      0.455890000000     0.161260000000     0.319070000000     0          
H21      H      0.457660000000     0.202790000000     0.396810000000     0          
H22      H      0.552910000000     0.243750000000     0.414380000000     0          
H23      H      0.551120000000     0.202200000000     0.336620000000     0          
F24      F      0.498520000000     0.026720000000     0.394910000000     0          
O25      O      0.918430000000     0.435240000000     0.072410000000     0          
O26      O      0.953330000000     0.430410000000     0.147810000000     0          
C27      C      0.924270000000     0.421550000000     0.132950000000     0          
C28      C      0.897160000000     0.396310000000     0.182220000000     0          
C29      C      0.901130000000     0.374890000000     0.227500000000     0          
C30      C      0.876540000000     0.351990000000     0.272180000000     0          
C31      C      0.847740000000     0.349970000000     0.272690000000     0          
C32      C      0.844030000000     0.371960000000     0.226280000000     0          
C33      C      0.868610000000     0.394840000000     0.181610000000     0          
C34      C      0.821660000000     0.325020000000     0.321500000000     0          
C35      C      0.821480000000     0.297660000000     0.339020000000     0          
C36      C      0.797310000000     0.274530000000     0.384250000000     0          
C37      C      0.773300000000     0.278710000000     0.412020000000     0          
C38      C      0.773500000000     0.306110000000     0.394460000000     0          
C39      C      0.797670000000     0.329240000000     0.349220000000     0          
H40      H      0.921660000000     0.375930000000     0.227940000000     0          
H41      H      0.879400000000     0.336580000000     0.304750000000     0          
H42      H      0.823580000000     0.371100000000     0.225450000000     0          
H43      H      0.865750000000     0.410250000000     0.149030000000     0          
H44      H      0.838740000000     0.294630000000     0.319070000000     0          
H45      H      0.797210000000     0.254870000000     0.396810000000     0          
H46      H      0.756250000000     0.309160000000     0.414380000000     0          
H47      H      0.797800000000     0.348920000000     0.336620000000     0          
F48      F      0.973280000000     0.471800000000     0.394910000000     0          
O49      O      0.564760000000     0.483190000000     0.072410000000     0          
O50      O      0.569590000000     0.522920000000     0.147810000000     0          
C51      C      0.578450000000     0.502720000000     0.132950000000     0          
C52      C      0.603690000000     0.500850000000     0.182220000000     0          
C53      C      0.625110000000     0.526240000000     0.227500000000     0          
C54      C      0.648010000000     0.524550000000     0.272180000000     0          
C55      C      0.650030000000     0.497770000000     0.272690000000     0          
C56      C      0.628040000000     0.472070000000     0.226280000000     0          
C57      C      0.605160000000     0.473770000000     0.181610000000     0          
C58      C      0.674980000000     0.496640000000     0.321500000000     0          
C59      C      0.702340000000     0.523820000000     0.339020000000     0          
C60      C      0.725470000000     0.522780000000     0.384250000000     0          
C61      C      0.721290000000     0.494590000000     0.412020000000     0          
C62      C      0.693890000000     0.467390000000     0.394460000000     0          
C63      C      0.670760000000     0.468430000000     0.349220000000     0          
H64      H      0.624070000000     0.545730000000     0.227940000000     0          
H65      H      0.663420000000     0.542820000000     0.304750000000     0          
H66      H      0.628900000000     0.452480000000     0.225450000000     0          
H67      H      0.589750000000     0.455500000000     0.149030000000     0          
H68      H      0.705370000000     0.544110000000     0.319070000000     0          
H69      H      0.745130000000     0.542340000000     0.396810000000     0          
H70      H      0.690840000000     0.447090000000     0.414380000000     0          
H71      H      0.651080000000     0.448880000000     0.336620000000     0          
F72      F      0.528200000000     0.501480000000     0.394910000000     0          
O73      O      0.483190000000     0.918430000000     0.072410000000     0          
O74      O      0.522920000000     0.953330000000     0.147810000000     0          
C75      C      0.502720000000     0.924270000000     0.132950000000     0          
C76      C      0.500850000000     0.897160000000     0.182220000000     0          
C77      C      0.526240000000     0.901130000000     0.227500000000     0          
C78      C      0.524550000000     0.876540000000     0.272180000000     0          
C79      C      0.497770000000     0.847740000000     0.272690000000     0          
C80      C      0.472070000000     0.844030000000     0.226280000000     0          
C81      C      0.473770000000     0.868610000000     0.181610000000     0          
C82      C      0.496640000000     0.821660000000     0.321500000000     0          
C83      C      0.523820000000     0.821480000000     0.339020000000     0          
C84      C      0.522780000000     0.797310000000     0.384250000000     0          
C85      C      0.494590000000     0.773300000000     0.412020000000     0          
C86      C      0.467390000000     0.773500000000     0.394460000000     0          
C87      C      0.468430000000     0.797670000000     0.349220000000     0          
H88      H      0.545730000000     0.921660000000     0.227940000000     0          
H89      H      0.542820000000     0.879400000000     0.304750000000     0          
H90      H      0.452480000000     0.823580000000     0.225450000000     0          
H91      H      0.455500000000     0.865750000000     0.149030000000     0          
H92      H      0.544110000000     0.838740000000     0.319070000000     0          
H93      H      0.542340000000     0.797210000000     0.396810000000     0          
H94      H      0.447090000000     0.756250000000     0.414380000000     0          
H95      H      0.448880000000     0.797800000000     0.336620000000     0          
O96      O      0.081570000000     0.564760000000     0.072410000000     0          
O97      O      0.046670000000     0.569590000000     0.147810000000     0          
C98      C      0.075730000000     0.578450000000     0.132950000000     0          
C99      C      0.102840000000     0.603690000000     0.182220000000     0          
C100     C      0.098870000000     0.625110000000     0.227500000000     0          
C101     C      0.123460000000     0.648010000000     0.272180000000     0          
C102     C      0.152260000000     0.650030000000     0.272690000000     0          
C103     C      0.155970000000     0.628040000000     0.226280000000     0          
C104     C      0.131390000000     0.605160000000     0.181610000000     0          
C105     C      0.178340000000     0.674980000000     0.321500000000     0          
C106     C      0.178520000000     0.702340000000     0.339020000000     0          
C107     C      0.202690000000     0.725470000000     0.384250000000     0          
C108     C      0.226700000000     0.721290000000     0.412020000000     0          
C109     C      0.226500000000     0.693890000000     0.394460000000     0          
C110     C      0.202330000000     0.670760000000     0.349220000000     0          
H111     H      0.078340000000     0.624070000000     0.227940000000     0          
H112     H      0.120600000000     0.663420000000     0.304750000000     0          
H113     H      0.176420000000     0.628900000000     0.225450000000     0          
H114     H      0.134250000000     0.589750000000     0.149030000000     0          
H115     H      0.161260000000     0.705370000000     0.319070000000     0          
H116     H      0.202790000000     0.745130000000     0.396810000000     0          
H117     H      0.243750000000     0.690840000000     0.414380000000     0          
H118     H      0.202200000000     0.651080000000     0.336620000000     0          
O119     O      0.435240000000     0.516810000000     0.072410000000     0          
O120     O      0.430410000000     0.477080000000     0.147810000000     0          
C121     C      0.421550000000     0.497280000000     0.132950000000     0          
C122     C      0.396310000000     0.499150000000     0.182220000000     0          
C123     C      0.374890000000     0.473760000000     0.227500000000     0          
C124     C      0.351990000000     0.475450000000     0.272180000000     0          
C125     C      0.349970000000     0.502230000000     0.272690000000     0          
C126     C      0.371960000000     0.527930000000     0.226280000000     0          
C127     C      0.394840000000     0.526230000000     0.181610000000     0          
C128     C      0.325020000000     0.503360000000     0.321500000000     0          
C129     C      0.297660000000     0.476180000000     0.339020000000     0          
C130     C      0.274530000000     0.477220000000     0.384250000000     0          
C131     C      0.278710000000     0.505410000000     0.412020000000     0          
C132     C      0.306110000000     0.532610000000     0.394460000000     0          
C133     C      0.329240000000     0.531570000000     0.349220000000     0          
H134     H      0.375930000000     0.454270000000     0.227940000000     0          
H135     H      0.336580000000     0.457180000000     0.304750000000     0          
H136     H      0.371100000000     0.547520000000     0.225450000000     0          
H137     H      0.410250000000     0.544500000000     0.149030000000     0          
H138     H      0.294630000000     0.455890000000     0.319070000000     0          
H139     H      0.254870000000     0.457660000000     0.396810000000     0          
H140     H      0.309160000000     0.552910000000     0.414380000000     0          
H141     H      0.348920000000     0.551120000000     0.336620000000     0          
O142     O      0.081570000000     0.516810000000     0.927590000000     0          
O143     O      0.046670000000     0.477080000000     0.852190000000     0          
C144     C      0.075730000000     0.497280000000     0.867050000000     0          
C145     C      0.102840000000     0.499150000000     0.817780000000     0          
C146     C      0.098870000000     0.473760000000     0.772500000000     0          
C147     C      0.123460000000     0.475450000000     0.727820000000     0          
C148     C      0.152260000000     0.502230000000     0.727310000000     0          
C149     C      0.155970000000     0.527930000000     0.773720000000     0          
C150     C      0.131390000000     0.526230000000     0.818390000000     0          
C151     C      0.178340000000     0.503360000000     0.678500000000     0          
C152     C      0.178520000000     0.476180000000     0.660980000000     0          
C153     C      0.202690000000     0.477220000000     0.615750000000     0          
C154     C      0.226700000000     0.505410000000     0.587980000000     0          
C155     C      0.226500000000     0.532610000000     0.605540000000     0          
C156     C      0.202330000000     0.531570000000     0.650780000000     0          
H157     H      0.078340000000     0.454270000000     0.772060000000     0          
H158     H      0.120600000000     0.457180000000     0.695250000000     0          
H159     H      0.176420000000     0.547520000000     0.774550000000     0          
H160     H      0.134250000000     0.544500000000     0.850970000000     0          
H161     H      0.161260000000     0.455890000000     0.680930000000     0          
H162     H      0.202790000000     0.457660000000     0.603190000000     0          
H163     H      0.243750000000     0.552910000000     0.585620000000     0          
H164     H      0.202200000000     0.551120000000     0.663380000000     0          
O165     O      0.435240000000     0.918430000000     0.927590000000     0          
O166     O      0.430410000000     0.953330000000     0.852190000000     0          
C167     C      0.421550000000     0.924270000000     0.867050000000     0          
C168     C      0.396310000000     0.897160000000     0.817780000000     0          
C169     C      0.374890000000     0.901130000000     0.772500000000     0          
C170     C      0.351990000000     0.876540000000     0.727820000000     0          
C171     C      0.349970000000     0.847740000000     0.727310000000     0          
C172     C      0.371960000000     0.844030000000     0.773720000000     0          
C173     C      0.394840000000     0.868610000000     0.818390000000     0          
C174     C      0.325020000000     0.821660000000     0.678500000000     0          
C175     C      0.297660000000     0.821480000000     0.660980000000     0          
C176     C      0.274530000000     0.797310000000     0.615750000000     0          
C177     C      0.278710000000     0.773300000000     0.587980000000     0          
C178     C      0.306110000000     0.773500000000     0.605540000000     0          
C179     C      0.329240000000     0.797670000000     0.650780000000     0          
H180     H      0.375930000000     0.921660000000     0.772060000000     0          
H181     H      0.336580000000     0.879400000000     0.695250000000     0          
H182     H      0.371100000000     0.823580000000     0.774550000000     0          
H183     H      0.410250000000     0.865750000000     0.850970000000     0          
H184     H      0.294630000000     0.838740000000     0.680930000000     0          
H185     H      0.254870000000     0.797210000000     0.603190000000     0          
H186     H      0.309160000000     0.756250000000     0.585620000000     0          
H187     H      0.348920000000     0.797800000000     0.663380000000     0          
O188     O      0.483190000000     0.564760000000     0.927590000000     0          
O189     O      0.522920000000     0.569590000000     0.852190000000     0          
C190     C      0.502720000000     0.578450000000     0.867050000000     0          
C191     C      0.500850000000     0.603690000000     0.817780000000     0          
C192     C      0.526240000000     0.625110000000     0.772500000000     0          
C193     C      0.524550000000     0.648010000000     0.727820000000     0          
C194     C      0.497770000000     0.650030000000     0.727310000000     0          
C195     C      0.472070000000     0.628040000000     0.773720000000     0          
C196     C      0.473770000000     0.605160000000     0.818390000000     0          
C197     C      0.496640000000     0.674980000000     0.678500000000     0          
C198     C      0.523820000000     0.702340000000     0.660980000000     0          
C199     C      0.522780000000     0.725470000000     0.615750000000     0          
C200     C      0.494590000000     0.721290000000     0.587980000000     0          
C201     C      0.467390000000     0.693890000000     0.605540000000     0          
C202     C      0.468430000000     0.670760000000     0.650780000000     0          
H203     H      0.545730000000     0.624070000000     0.772060000000     0          
H204     H      0.542820000000     0.663420000000     0.695250000000     0          
H205     H      0.452480000000     0.628900000000     0.774550000000     0          
H206     H      0.455500000000     0.589750000000     0.850970000000     0          
H207     H      0.544110000000     0.705370000000     0.680930000000     0          
H208     H      0.542340000000     0.745130000000     0.603190000000     0          
H209     H      0.447090000000     0.690840000000     0.585620000000     0          
H210     H      0.448880000000     0.651080000000     0.663380000000     0          
O211     O      0.918430000000     0.483190000000     0.927590000000     0          
O212     O      0.953330000000     0.522920000000     0.852190000000     0          
C213     C      0.924270000000     0.502720000000     0.867050000000     0          
C214     C      0.897160000000     0.500850000000     0.817780000000     0          
C215     C      0.901130000000     0.526240000000     0.772500000000     0          
C216     C      0.876540000000     0.524550000000     0.727820000000     0          
C217     C      0.847740000000     0.497770000000     0.727310000000     0          
C218     C      0.844030000000     0.472070000000     0.773720000000     0          
C219     C      0.868610000000     0.473770000000     0.818390000000     0          
C220     C      0.821660000000     0.496640000000     0.678500000000     0          
C221     C      0.821480000000     0.523820000000     0.660980000000     0          
C222     C      0.797310000000     0.522780000000     0.615750000000     0          
C223     C      0.773300000000     0.494590000000     0.587980000000     0          
C224     C      0.773500000000     0.467390000000     0.605540000000     0          
C225     C      0.797670000000     0.468430000000     0.650780000000     0          
H226     H      0.921660000000     0.545730000000     0.772060000000     0          
H227     H      0.879400000000     0.542820000000     0.695250000000     0          
H228     H      0.823580000000     0.452480000000     0.774550000000     0          
H229     H      0.865750000000     0.455500000000     0.850970000000     0          
H230     H      0.838740000000     0.544110000000     0.680930000000     0          
H231     H      0.797210000000     0.542340000000     0.603190000000     0          
H232     H      0.756250000000     0.447090000000     0.585620000000     0          
H233     H      0.797800000000     0.448880000000     0.663380000000     0          
F234     F      0.973280000000     0.501480000000     0.605090000000     0          
O235     O      0.564760000000     0.081570000000     0.927590000000     0          
O236     O      0.569590000000     0.046670000000     0.852190000000     0          
C237     C      0.578450000000     0.075730000000     0.867050000000     0          
C238     C      0.603690000000     0.102840000000     0.817780000000     0          
C239     C      0.625110000000     0.098870000000     0.772500000000     0          
C240     C      0.648010000000     0.123460000000     0.727820000000     0          
C241     C      0.650030000000     0.152260000000     0.727310000000     0          
C242     C      0.628040000000     0.155970000000     0.773720000000     0          
C243     C      0.605160000000     0.131390000000     0.818390000000     0          
C244     C      0.674980000000     0.178340000000     0.678500000000     0          
C245     C      0.702340000000     0.178520000000     0.660980000000     0          
C246     C      0.725470000000     0.202690000000     0.615750000000     0          
C247     C      0.721290000000     0.226700000000     0.587980000000     0          
C248     C      0.693890000000     0.226500000000     0.605540000000     0          
C249     C      0.670760000000     0.202330000000     0.650780000000     0          
H250     H      0.624070000000     0.078340000000     0.772060000000     0          
H251     H      0.663420000000     0.120600000000     0.695250000000     0          
H252     H      0.628900000000     0.176420000000     0.774550000000     0          
H253     H      0.589750000000     0.134250000000     0.850970000000     0          
H254     H      0.705370000000     0.161260000000     0.680930000000     0          
H255     H      0.745130000000     0.202790000000     0.603190000000     0          
H256     H      0.690840000000     0.243750000000     0.585620000000     0          
H257     H      0.651080000000     0.202200000000     0.663380000000     0          
F258     F      0.528200000000     0.026720000000     0.605090000000     0          
O259     O      0.516810000000     0.435240000000     0.927590000000     0          
O260     O      0.477080000000     0.430410000000     0.852190000000     0          
C261     C      0.497280000000     0.421550000000     0.867050000000     0          
C262     C      0.499150000000     0.396310000000     0.817780000000     0          
C263     C      0.473760000000     0.374890000000     0.772500000000     0          
C264     C      0.475450000000     0.351990000000     0.727820000000     0          
C265     C      0.502230000000     0.349970000000     0.727310000000     0          
C266     C      0.527930000000     0.371960000000     0.773720000000     0          
C267     C      0.526230000000     0.394840000000     0.818390000000     0          
C268     C      0.503360000000     0.325020000000     0.678500000000     0          
C269     C      0.476180000000     0.297660000000     0.660980000000     0          
C270     C      0.477220000000     0.274530000000     0.615750000000     0          
C271     C      0.505410000000     0.278710000000     0.587980000000     0          
C272     C      0.532610000000     0.306110000000     0.605540000000     0          
C273     C      0.531570000000     0.329240000000     0.650780000000     0          
H274     H      0.454270000000     0.375930000000     0.772060000000     0          
H275     H      0.457180000000     0.336580000000     0.695250000000     0          
H276     H      0.547520000000     0.371100000000     0.774550000000     0          
H277     H      0.544500000000     0.410250000000     0.850970000000     0          
H278     H      0.455890000000     0.294630000000     0.680930000000     0          
H279     H      0.457660000000     0.254870000000     0.603190000000     0          
H280     H      0.552910000000     0.309160000000     0.585620000000     0          
H281     H      0.551120000000     0.348920000000     0.663380000000     0          
F282     F      0.498520000000     0.471800000000     0.605090000000     0          
O283     O      0.483190000000     0.918430000000     0.927590000000     0          
O284     O      0.522920000000     0.953330000000     0.852190000000     0          
C285     C      0.502720000000     0.924270000000     0.867050000000     0          
C286     C      0.500850000000     0.897160000000     0.817780000000     0          
C287     C      0.526240000000     0.901130000000     0.772500000000     0          
C288     C      0.524550000000     0.876540000000     0.727820000000     0          
C289     C      0.497770000000     0.847740000000     0.727310000000     0          
C290     C      0.472070000000     0.844030000000     0.773720000000     0          
C291     C      0.473770000000     0.868610000000     0.818390000000     0          
C292     C      0.496640000000     0.821660000000     0.678500000000     0          
C293     C      0.523820000000     0.821480000000     0.660980000000     0          
C294     C      0.522780000000     0.797310000000     0.615750000000     0          
C295     C      0.494590000000     0.773300000000     0.587980000000     0          
C296     C      0.467390000000     0.773500000000     0.605540000000     0          
C297     C      0.468430000000     0.797670000000     0.650780000000     0          
H298     H      0.545730000000     0.921660000000     0.772060000000     0          
H299     H      0.542820000000     0.879400000000     0.695250000000     0          
H300     H      0.452480000000     0.823580000000     0.774550000000     0          
H301     H      0.455500000000     0.865750000000     0.850970000000     0          
H302     H      0.544110000000     0.838740000000     0.680930000000     0          
H303     H      0.542340000000     0.797210000000     0.603190000000     0          
H304     H      0.447090000000     0.756250000000     0.585620000000     0          
H305     H      0.448880000000     0.797800000000     0.663380000000     0          
F306     F      0.501480000000     0.973280000000     0.605090000000     0          
O307     O      0.081570000000     0.564760000000     0.927590000000     0          
O308     O      0.046670000000     0.569590000000     0.852190000000     0          
C309     C      0.075730000000     0.578450000000     0.867050000000     0          
C310     C      0.102840000000     0.603690000000     0.817780000000     0          
C311     C      0.098870000000     0.625110000000     0.772500000000     0          
C312     C      0.123460000000     0.648010000000     0.727820000000     0          
C313     C      0.152260000000     0.650030000000     0.727310000000     0          
C314     C      0.155970000000     0.628040000000     0.773720000000     0          
C315     C      0.131390000000     0.605160000000     0.818390000000     0          
C316     C      0.178340000000     0.674980000000     0.678500000000     0          
C317     C      0.178520000000     0.702340000000     0.660980000000     0          
C318     C      0.202690000000     0.725470000000     0.615750000000     0          
C319     C      0.226700000000     0.721290000000     0.587980000000     0          
C320     C      0.226500000000     0.693890000000     0.605540000000     0          
C321     C      0.202330000000     0.670760000000     0.650780000000     0          
H322     H      0.078340000000     0.624070000000     0.772060000000     0          
H323     H      0.120600000000     0.663420000000     0.695250000000     0          
H324     H      0.176420000000     0.628900000000     0.774550000000     0          
H325     H      0.134250000000     0.589750000000     0.850970000000     0          
H326     H      0.161260000000     0.705370000000     0.680930000000     0          
H327     H      0.202790000000     0.745130000000     0.603190000000     0          
H328     H      0.243750000000     0.690840000000     0.585620000000     0          
H329     H      0.202200000000     0.651080000000     0.663380000000     0          
F330     F      0.026720000000     0.528200000000     0.605090000000     0          
O331     O      0.435240000000     0.516810000000     0.927590000000     0          
O332     O      0.430410000000     0.477080000000     0.852190000000     0          
C333     C      0.421550000000     0.497280000000     0.867050000000     0          
C334     C      0.396310000000     0.499150000000     0.817780000000     0          
C335     C      0.374890000000     0.473760000000     0.772500000000     0          
C336     C      0.351990000000     0.475450000000     0.727820000000     0          
C337     C      0.349970000000     0.502230000000     0.727310000000     0          
C338     C      0.371960000000     0.527930000000     0.773720000000     0          
C339     C      0.394840000000     0.526230000000     0.818390000000     0          
C340     C      0.325020000000     0.503360000000     0.678500000000     0          
C341     C      0.297660000000     0.476180000000     0.660980000000     0          
C342     C      0.274530000000     0.477220000000     0.615750000000     0          
C343     C      0.278710000000     0.505410000000     0.587980000000     0          
C344     C      0.306110000000     0.532610000000     0.605540000000     0          
C345     C      0.329240000000     0.531570000000     0.650780000000     0          
H346     H      0.375930000000     0.454270000000     0.772060000000     0          
H347     H      0.336580000000     0.457180000000     0.695250000000     0          
H348     H      0.371100000000     0.547520000000     0.774550000000     0          
H349     H      0.410250000000     0.544500000000     0.850970000000     0          
H350     H      0.294630000000     0.455890000000     0.680930000000     0          
H351     H      0.254870000000     0.457660000000     0.603190000000     0          
H352     H      0.309160000000     0.552910000000     0.585620000000     0          
H353     H      0.348920000000     0.551120000000     0.663380000000     0          
F354     F      0.471800000000     0.498520000000     0.605090000000     0          
O355     O      0.516810000000     0.081570000000     0.927590000000     0          
O356     O      0.477080000000     0.046670000000     0.852190000000     0          
C357     C      0.497280000000     0.075730000000     0.867050000000     0          
C358     C      0.499150000000     0.102840000000     0.817780000000     0          
C359     C      0.473760000000     0.098870000000     0.772500000000     0          
C360     C      0.475450000000     0.123460000000     0.727820000000     0          
C361     C      0.502230000000     0.152260000000     0.727310000000     0          
C362     C      0.527930000000     0.155970000000     0.773720000000     0          
C363     C      0.526230000000     0.131390000000     0.818390000000     0          
C364     C      0.503360000000     0.178340000000     0.678500000000     0          
C365     C      0.476180000000     0.178520000000     0.660980000000     0          
C366     C      0.477220000000     0.202690000000     0.615750000000     0          
C367     C      0.505410000000     0.226700000000     0.587980000000     0          
C368     C      0.532610000000     0.226500000000     0.605540000000     0          
C369     C      0.531570000000     0.202330000000     0.650780000000     0          
H370     H      0.454270000000     0.078340000000     0.772060000000     0          
H371     H      0.457180000000     0.120600000000     0.695250000000     0          
H372     H      0.547520000000     0.176420000000     0.774550000000     0          
H373     H      0.544500000000     0.134250000000     0.850970000000     0          
H374     H      0.455890000000     0.161260000000     0.680930000000     0          
H375     H      0.457660000000     0.202790000000     0.603190000000     0          
H376     H      0.552910000000     0.243750000000     0.585620000000     0          
H377     H      0.551120000000     0.202200000000     0.663380000000     0          
O378     O      0.918430000000     0.435240000000     0.927590000000     0          
O379     O      0.953330000000     0.430410000000     0.852190000000     0          
C380     C      0.924270000000     0.421550000000     0.867050000000     0          
C381     C      0.897160000000     0.396310000000     0.817780000000     0          
C382     C      0.901130000000     0.374890000000     0.772500000000     0          
C383     C      0.876540000000     0.351990000000     0.727820000000     0          
C384     C      0.847740000000     0.349970000000     0.727310000000     0          
C385     C      0.844030000000     0.371960000000     0.773720000000     0          
C386     C      0.868610000000     0.394840000000     0.818390000000     0          
C387     C      0.821660000000     0.325020000000     0.678500000000     0          
C388     C      0.821480000000     0.297660000000     0.660980000000     0          
C389     C      0.797310000000     0.274530000000     0.615750000000     0          
C390     C      0.773300000000     0.278710000000     0.587980000000     0          
C391     C      0.773500000000     0.306110000000     0.605540000000     0          
C392     C      0.797670000000     0.329240000000     0.650780000000     0          
H393     H      0.921660000000     0.375930000000     0.772060000000     0          
H394     H      0.879400000000     0.336580000000     0.695250000000     0          
H395     H      0.823580000000     0.371100000000     0.774550000000     0          
H396     H      0.865750000000     0.410250000000     0.850970000000     0          
H397     H      0.838740000000     0.294630000000     0.680930000000     0          
H398     H      0.797210000000     0.254870000000     0.603190000000     0          
H399     H      0.756250000000     0.309160000000     0.585620000000     0          
H400     H      0.797800000000     0.348920000000     0.663380000000     0          
O401     O      0.564760000000     0.483190000000     0.927590000000     0          
O402     O      0.569590000000     0.522920000000     0.852190000000     0          
C403     C      0.578450000000     0.502720000000     0.867050000000     0          
C404     C      0.603690000000     0.500850000000     0.817780000000     0          
C405     C      0.625110000000     0.526240000000     0.772500000000     0          
C406     C      0.648010000000     0.524550000000     0.727820000000     0          
C407     C      0.650030000000     0.497770000000     0.727310000000     0          
C408     C      0.628040000000     0.472070000000     0.773720000000     0          
C409     C      0.605160000000     0.473770000000     0.818390000000     0          
C410     C      0.674980000000     0.496640000000     0.678500000000     0          
C411     C      0.702340000000     0.523820000000     0.660980000000     0          
C412     C      0.725470000000     0.522780000000     0.615750000000     0          
C413     C      0.721290000000     0.494590000000     0.587980000000     0          
C414     C      0.693890000000     0.467390000000     0.605540000000     0          
C415     C      0.670760000000     0.468430000000     0.650780000000     0          
H416     H      0.624070000000     0.545730000000     0.772060000000     0          
H417     H      0.663420000000     0.542820000000     0.695250000000     0          
H418     H      0.628900000000     0.452480000000     0.774550000000     0          
H419     H      0.589750000000     0.455500000000     0.850970000000     0          
H420     H      0.705370000000     0.544110000000     0.680930000000     0          
H421     H      0.745130000000     0.542340000000     0.603190000000     0          
H422     H      0.690840000000     0.447090000000     0.585620000000     0          
H423     H      0.651080000000     0.448880000000     0.663380000000     0          
O424     O      0.918430000000     0.483190000000     0.072410000000     0          
O425     O      0.953330000000     0.522920000000     0.147810000000     0          
C426     C      0.924270000000     0.502720000000     0.132950000000     0          
C427     C      0.897160000000     0.500850000000     0.182220000000     0          
C428     C      0.901130000000     0.526240000000     0.227500000000     0          
C429     C      0.876540000000     0.524550000000     0.272180000000     0          
C430     C      0.847740000000     0.497770000000     0.272690000000     0          
C431     C      0.844030000000     0.472070000000     0.226280000000     0          
C432     C      0.868610000000     0.473770000000     0.181610000000     0          
C433     C      0.821660000000     0.496640000000     0.321500000000     0          
C434     C      0.821480000000     0.523820000000     0.339020000000     0          
C435     C      0.797310000000     0.522780000000     0.384250000000     0          
C436     C      0.773300000000     0.494590000000     0.412020000000     0          
C437     C      0.773500000000     0.467390000000     0.394460000000     0          
C438     C      0.797670000000     0.468430000000     0.349220000000     0          
H439     H      0.921660000000     0.545730000000     0.227940000000     0          
H440     H      0.879400000000     0.542820000000     0.304750000000     0          
H441     H      0.823580000000     0.452480000000     0.225450000000     0          
H442     H      0.865750000000     0.455500000000     0.149030000000     0          
H443     H      0.838740000000     0.544110000000     0.319070000000     0          
H444     H      0.797210000000     0.542340000000     0.396810000000     0          
H445     H      0.756250000000     0.447090000000     0.414380000000     0          
H446     H      0.797800000000     0.448880000000     0.336620000000     0          
O447     O      0.564760000000     0.081570000000     0.072410000000     0          
O448     O      0.569590000000     0.046670000000     0.147810000000     0          
C449     C      0.578450000000     0.075730000000     0.132950000000     0          
C450     C      0.603690000000     0.102840000000     0.182220000000     0          
C451     C      0.625110000000     0.098870000000     0.227500000000     0          
C452     C      0.648010000000     0.123460000000     0.272180000000     0          
C453     C      0.650030000000     0.152260000000     0.272690000000     0          
C454     C      0.628040000000     0.155970000000     0.226280000000     0          
C455     C      0.605160000000     0.131390000000     0.181610000000     0          
C456     C      0.674980000000     0.178340000000     0.321500000000     0          
C457     C      0.702340000000     0.178520000000     0.339020000000     0          
C458     C      0.725470000000     0.202690000000     0.384250000000     0          
C459     C      0.721290000000     0.226700000000     0.412020000000     0          
C460     C      0.693890000000     0.226500000000     0.394460000000     0          
C461     C      0.670760000000     0.202330000000     0.349220000000     0          
H462     H      0.624070000000     0.078340000000     0.227940000000     0          
H463     H      0.663420000000     0.120600000000     0.304750000000     0          
H464     H      0.628900000000     0.176420000000     0.225450000000     0          
H465     H      0.589750000000     0.134250000000     0.149030000000     0          
H466     H      0.705370000000     0.161260000000     0.319070000000     0          
H467     H      0.745130000000     0.202790000000     0.396810000000     0          
H468     H      0.690840000000     0.243750000000     0.414380000000     0          
H469     H      0.651080000000     0.202200000000     0.336620000000     0          
O470     O      0.516810000000     0.435240000000     0.072410000000     0          
O471     O      0.477080000000     0.430410000000     0.147810000000     0          
C472     C      0.497280000000     0.421550000000     0.132950000000     0          
C473     C      0.499150000000     0.396310000000     0.182220000000     0          
C474     C      0.473760000000     0.374890000000     0.227500000000     0          
C475     C      0.475450000000     0.351990000000     0.272180000000     0          
C476     C      0.502230000000     0.349970000000     0.272690000000     0          
C477     C      0.527930000000     0.371960000000     0.226280000000     0          
C478     C      0.526230000000     0.394840000000     0.181610000000     0          
C479     C      0.503360000000     0.325020000000     0.321500000000     0          
C480     C      0.476180000000     0.297660000000     0.339020000000     0          
C481     C      0.477220000000     0.274530000000     0.384250000000     0          
C482     C      0.505410000000     0.278710000000     0.412020000000     0          
C483     C      0.532610000000     0.306110000000     0.394460000000     0          
C484     C      0.531570000000     0.329240000000     0.349220000000     0          
H485     H      0.454270000000     0.375930000000     0.227940000000     0          
H486     H      0.457180000000     0.336580000000     0.304750000000     0          
H487     H      0.547520000000     0.371100000000     0.225450000000     0          
H488     H      0.544500000000     0.410250000000     0.149030000000     0          
H489     H      0.455890000000     0.294630000000     0.319070000000     0          
H490     H      0.457660000000     0.254870000000     0.396810000000     0          
H491     H      0.552910000000     0.309160000000     0.414380000000     0          
H492     H      0.551120000000     0.348920000000     0.336620000000     0          
O493     O      0.081570000000     0.516810000000     0.072410000000     0          
O494     O      0.046670000000     0.477080000000     0.147810000000     0          
C495     C      0.075730000000     0.497280000000     0.132950000000     0          
C496     C      0.102840000000     0.499150000000     0.182220000000     0          
C497     C      0.098870000000     0.473760000000     0.227500000000     0          
C498     C      0.123460000000     0.475450000000     0.272180000000     0          
C499     C      0.152260000000     0.502230000000     0.272690000000     0          
C500     C      0.155970000000     0.527930000000     0.226280000000     0          
C501     C      0.131390000000     0.526230000000     0.181610000000     0          
C502     C      0.178340000000     0.503360000000     0.321500000000     0          
C503     C      0.178520000000     0.476180000000     0.339020000000     0          
C504     C      0.202690000000     0.477220000000     0.384250000000     0          
C505     C      0.226700000000     0.505410000000     0.412020000000     0          
C506     C      0.226500000000     0.532610000000     0.394460000000     0          
C507     C      0.202330000000     0.531570000000     0.349220000000     0          
H508     H      0.078340000000     0.454270000000     0.227940000000     0          
H509     H      0.120600000000     0.457180000000     0.304750000000     0          
H510     H      0.176420000000     0.547520000000     0.225450000000     0          
H511     H      0.134250000000     0.544500000000     0.149030000000     0          
H512     H      0.161260000000     0.455890000000     0.319070000000     0          
H513     H      0.202790000000     0.457660000000     0.396810000000     0          
H514     H      0.243750000000     0.552910000000     0.414380000000     0          
H515     H      0.202200000000     0.551120000000     0.336620000000     0          
F516     F      0.026720000000     0.498520000000     0.394910000000     0          
O517     O      0.435240000000     0.918430000000     0.072410000000     0          
O518     O      0.430410000000     0.953330000000     0.147810000000     0          
C519     C      0.421550000000     0.924270000000     0.132950000000     0          
C520     C      0.396310000000     0.897160000000     0.182220000000     0          
C521     C      0.374890000000     0.901130000000     0.227500000000     0          
C522     C      0.351990000000     0.876540000000     0.272180000000     0          
C523     C      0.349970000000     0.847740000000     0.272690000000     0          
C524     C      0.371960000000     0.844030000000     0.226280000000     0          
C525     C      0.394840000000     0.868610000000     0.181610000000     0          
C526     C      0.325020000000     0.821660000000     0.321500000000     0          
C527     C      0.297660000000     0.821480000000     0.339020000000     0          
C528     C      0.274530000000     0.797310000000     0.384250000000     0          
C529     C      0.278710000000     0.773300000000     0.412020000000     0          
C530     C      0.306110000000     0.773500000000     0.394460000000     0          
C531     C      0.329240000000     0.797670000000     0.349220000000     0          
H532     H      0.375930000000     0.921660000000     0.227940000000     0          
H533     H      0.336580000000     0.879400000000     0.304750000000     0          
H534     H      0.371100000000     0.823580000000     0.225450000000     0          
H535     H      0.410250000000     0.865750000000     0.149030000000     0          
H536     H      0.294630000000     0.838740000000     0.319070000000     0          
H537     H      0.254870000000     0.797210000000     0.396810000000     0          
H538     H      0.309160000000     0.756250000000     0.414380000000     0          
H539     H      0.348920000000     0.797800000000     0.336620000000     0          
F540     F      0.471800000000     0.973280000000     0.394910000000     0          
O541     O      0.483190000000     0.564760000000     0.072410000000     0          
O542     O      0.522920000000     0.569590000000     0.147810000000     0          
C543     C      0.502720000000     0.578450000000     0.132950000000     0          
C544     C      0.500850000000     0.603690000000     0.182220000000     0          
C545     C      0.526240000000     0.625110000000     0.227500000000     0          
C546     C      0.524550000000     0.648010000000     0.272180000000     0          
C547     C      0.497770000000     0.650030000000     0.272690000000     0          
C548     C      0.472070000000     0.628040000000     0.226280000000     0          
C549     C      0.473770000000     0.605160000000     0.181610000000     0          
C550     C      0.496640000000     0.674980000000     0.321500000000     0          
C551     C      0.523820000000     0.702340000000     0.339020000000     0          
C552     C      0.522780000000     0.725470000000     0.384250000000     0          
C553     C      0.494590000000     0.721290000000     0.412020000000     0          
C554     C      0.467390000000     0.693890000000     0.394460000000     0          
C555     C      0.468430000000     0.670760000000     0.349220000000     0          
H556     H      0.545730000000     0.624070000000     0.227940000000     0          
H557     H      0.542820000000     0.663420000000     0.304750000000     0          
H558     H      0.452480000000     0.628900000000     0.225450000000     0          
H559     H      0.455500000000     0.589750000000     0.149030000000     0          
H560     H      0.544110000000     0.705370000000     0.319070000000     0          
H561     H      0.542340000000     0.745130000000     0.396810000000     0          
H562     H      0.447090000000     0.690840000000     0.414380000000     0          
H563     H      0.448880000000     0.651080000000     0.336620000000     0          
F564     F      0.501480000000     0.528200000000     0.394910000000     0          
Zr565    Zr     0.463880000000     0.000000000000     0.108300000000     0          
O566     O      0.476160000000     0.000000000000     0.231550000000     0          
Zr567    Zr     0.000000000000     0.463880000000     0.108300000000     0          
O568     O      0.000000000000     0.476160000000     0.231550000000     0          
Zr569    Zr     0.536120000000     0.536120000000     0.108300000000     0          
O570     O      0.523840000000     0.523840000000     0.231550000000     0          
Zr571    Zr     0.536120000000     0.000000000000     0.108300000000     0          
O572     O      0.523840000000     0.000000000000     0.231550000000     0          
F573     F      0.528550000000     0.000000000000     0.394910000000     0          
Zr574    Zr     0.000000000000     0.536120000000     0.108300000000     0          
O575     O      0.000000000000     0.523840000000     0.231550000000     0          
F576     F      0.000000000000     0.528550000000     0.394910000000     0          
Zr577    Zr     0.463880000000     0.463880000000     0.108300000000     0          
O578     O      0.476160000000     0.476160000000     0.231550000000     0          
F579     F      0.471450000000     0.471450000000     0.394910000000     0          
Zr580    Zr     0.000000000000     0.463880000000     0.891700000000     0          
O581     O      0.000000000000     0.476160000000     0.768450000000     0          
F582     F      0.000000000000     0.471450000000     0.605090000000     0          
Zr583    Zr     0.463880000000     0.000000000000     0.891700000000     0          
O584     O      0.476160000000     0.000000000000     0.768450000000     0          
F585     F      0.471450000000     0.000000000000     0.605090000000     0          
Zr586    Zr     0.536120000000     0.536120000000     0.891700000000     0          
O587     O      0.523840000000     0.523840000000     0.768450000000     0          
F588     F      0.528550000000     0.528550000000     0.605090000000     0          
Zr589    Zr     0.000000000000     0.536120000000     0.891700000000     0          
O590     O      0.000000000000     0.523840000000     0.768450000000     0          
Zr591    Zr     0.536120000000     0.000000000000     0.891700000000     0          
O592     O      0.523840000000     0.000000000000     0.768450000000     0          
Zr593    Zr     0.463880000000     0.463880000000     0.891700000000     0          
O594     O      0.476160000000     0.476160000000     0.768450000000     0          
Zr595    Zr     0.526690000000     0.053380000000     0.000000000000     0          
Zr596    Zr     0.946620000000     0.473310000000     0.000000000000     0          
Zr597    Zr     0.526690000000     0.473310000000     0.000000000000     0          
Zr598    Zr     0.473310000000     0.946620000000     0.000000000000     0          
Zr599    Zr     0.053380000000     0.526690000000     0.000000000000     0          
Zr600    Zr     0.473310000000     0.526690000000     0.000000000000     0          
O601     O      0.513380000000     0.026760000000     0.108840000000     0          
O602     O      0.973240000000     0.486620000000     0.108840000000     0          
O603     O      0.513380000000     0.486620000000     0.108840000000     0          
O604     O      0.486620000000     0.973240000000     0.108840000000     0          
O605     O      0.026760000000     0.513380000000     0.108840000000     0          
O606     O      0.486620000000     0.513380000000     0.108840000000     0          
O607     O      0.026760000000     0.513380000000     0.891160000000     0          
O608     O      0.486620000000     0.973240000000     0.891160000000     0          
O609     O      0.486620000000     0.513380000000     0.891160000000     0          
O610     O      0.973240000000     0.486620000000     0.891160000000     0          
O611     O      0.513380000000     0.026760000000     0.891160000000     0          
O612     O      0.513380000000     0.486620000000     0.891160000000     0          
O613     O      0.476820000000     0.030790000000     0.000000000000     0          
O614     O      0.969210000000     0.446030000000     0.000000000000     0          
O615     O      0.553970000000     0.523180000000     0.000000000000     0          
O616     O      0.523180000000     0.969210000000     0.000000000000     0          
O617     O      0.030790000000     0.553970000000     0.000000000000     0          
O618     O      0.446030000000     0.476820000000     0.000000000000     0          
O619     O      0.030790000000     0.476820000000     0.000000000000     0          
O620     O      0.446030000000     0.969210000000     0.000000000000     0          
O621     O      0.523180000000     0.553970000000     0.000000000000     0          
O622     O      0.969210000000     0.523180000000     0.000000000000     0          
O623     O      0.553970000000     0.030790000000     0.000000000000     0          
O624     O      0.476820000000     0.446030000000     0.000000000000     0          
C625     C      0.509800000000     0.254900000000     0.458020000000     0          
C626     C      0.745100000000     0.254900000000     0.458020000000     0          
C627     C      0.745100000000     0.490200000000     0.458020000000     0          
C628     C      0.490200000000     0.745100000000     0.458020000000     0          
C629     C      0.254900000000     0.745100000000     0.458020000000     0          
C630     C      0.254900000000     0.509800000000     0.458020000000     0          
C631     C      0.254900000000     0.509800000000     0.541980000000     0          
C632     C      0.254900000000     0.745100000000     0.541980000000     0          
C633     C      0.490200000000     0.745100000000     0.541980000000     0          
C634     C      0.745100000000     0.490200000000     0.541980000000     0          
C635     C      0.745100000000     0.254900000000     0.541980000000     0          
C636     C      0.509800000000     0.254900000000     0.541980000000     0          
C637     C      0.500000000000     0.000000000000     0.271060000000     0          
C638     C      0.500000000000     0.000000000000     0.366060000000     0          
C639     C      0.000000000000     0.500000000000     0.271060000000     0          
C640     C      0.000000000000     0.500000000000     0.366060000000     0          
C641     C      0.500000000000     0.500000000000     0.271060000000     0          
C642     C      0.500000000000     0.500000000000     0.366060000000     0          
C643     C      0.000000000000     0.500000000000     0.728940000000     0          
C644     C      0.000000000000     0.500000000000     0.633940000000     0          
C645     C      0.500000000000     0.000000000000     0.728940000000     0          
C646     C      0.500000000000     0.000000000000     0.633940000000     0          
C647     C      0.500000000000     0.500000000000     0.728940000000     0          
C648     C      0.500000000000     0.500000000000     0.633940000000     0          


