data_DAQPET01

_audit_creation_method RASPA-1.0
_audit_creation_date 2020-11-2
_audit_author_name 'Rocio Bueno-Perez'

_cell_length_a    38.4988
_cell_length_b    38.4988
_cell_length_c    38.4988
_cell_angle_alpha 90
_cell_angle_beta  90
_cell_angle_gamma 90
_cell_volume      57061.3

_symmetry_cell_setting          cubic
_symmetry_space_group_name_Hall 'P 1'
_symmetry_space_group_name_H-M  'P 1'
_symmetry_Int_Tables_number     1

_symmetry_equiv_pos_as_xyz 'x,y,z'

loop_
_atom_site_label
_atom_site_type_symbol
_atom_site_fract_x
_atom_site_fract_y
_atom_site_fract_z
_atom_site_charge
C2       C      0.471550000000     0.249000000000     0.072330000000     0          
O1       O      0.327620000000     0.277700000000     0.185410000000     0          
C3       C      0.483040000000     0.247000000000     0.108650000000     0          
H1       H      0.468500000000     0.245800000000     0.128500000000     0          
C6       C      0.365980000000     0.220800000000     0.122770000000     0          
H2       H      0.352900000000     0.200300000000     0.127200000000     0          
C7       C      0.392140000000     0.220500000000     0.097700000000     0          
H3       H      0.397600000000     0.199600000000     0.085700000000     0          
C1       C      0.409680000000     0.250000000000     0.090320000000     0          
C4       C      0.437340000000     0.250000000000     0.062660000000     0          
C5       C      0.359190000000     0.250000000000     0.140810000000     0          
C9       C      0.331730000000     0.250000000000     0.168270000000     0          
N1       N      0.500000000000     0.249500000000     0.051000000000     0          
Co1      Co     0.500000000000     0.250000000000     0.000000000000     0          
C8       C      0.500000000000     0.305600000000     0.000000000000     0          
O2       O      0.500000000000     0.336600000000     0.000000000000     0          
Zr1      Zr     0.284960000000     0.284960000000     0.221630000000     0          
O3       O      0.255580000000     0.255580000000     0.192000000000     0          
Zr2?     Zr     0.299330000000     0.299330000000     0.233590000000     0          
O4       O      0.281740000000     0.281740000000     0.281740000000     0          
C2       C      0.751000000000     0.471550000000     0.072330000000     0          
O1       O      0.722300000000     0.327620000000     0.185410000000     0          
C3       C      0.753000000000     0.483040000000     0.108650000000     0          
H1       H      0.754200000000     0.468500000000     0.128500000000     0          
C6       C      0.779200000000     0.365980000000     0.122770000000     0          
H2       H      0.799700000000     0.352900000000     0.127200000000     0          
C7       C      0.779500000000     0.392140000000     0.097700000000     0          
H3       H      0.800400000000     0.397600000000     0.085700000000     0          
C1       C      0.750000000000     0.409680000000     0.090320000000     0          
C4       C      0.750000000000     0.437340000000     0.062660000000     0          
C5       C      0.750000000000     0.359190000000     0.140810000000     0          
C9       C      0.750000000000     0.331730000000     0.168270000000     0          
N1       N      0.750500000000     0.500000000000     0.051000000000     0          
Co1      Co     0.750000000000     0.500000000000     0.000000000000     0          
C8       C      0.694400000000     0.500000000000     0.000000000000     0          
O2       O      0.663400000000     0.500000000000     0.000000000000     0          
Zr1      Zr     0.715040000000     0.284960000000     0.221630000000     0          
O3       O      0.744420000000     0.255580000000     0.192000000000     0          
Zr2?     Zr     0.700670000000     0.299330000000     0.233590000000     0          
O4       O      0.718260000000     0.281740000000     0.281740000000     0          
C2       C      0.528450000000     0.751000000000     0.072330000000     0          
O1       O      0.672380000000     0.722300000000     0.185410000000     0          
C3       C      0.516960000000     0.753000000000     0.108650000000     0          
H1       H      0.531500000000     0.754200000000     0.128500000000     0          
C6       C      0.634020000000     0.779200000000     0.122770000000     0          
H2       H      0.647100000000     0.799700000000     0.127200000000     0          
C7       C      0.607860000000     0.779500000000     0.097700000000     0          
H3       H      0.602400000000     0.800400000000     0.085700000000     0          
C1       C      0.590320000000     0.750000000000     0.090320000000     0          
C4       C      0.562660000000     0.750000000000     0.062660000000     0          
C5       C      0.640810000000     0.750000000000     0.140810000000     0          
C9       C      0.668270000000     0.750000000000     0.168270000000     0          
N1       N      0.500000000000     0.750500000000     0.051000000000     0          
Co1      Co     0.500000000000     0.750000000000     0.000000000000     0          
C8       C      0.500000000000     0.694400000000     0.000000000000     0          
O2       O      0.500000000000     0.663400000000     0.000000000000     0          
Zr1      Zr     0.715040000000     0.715040000000     0.221630000000     0          
O3       O      0.744420000000     0.744420000000     0.192000000000     0          
Zr2?     Zr     0.700670000000     0.700670000000     0.233590000000     0          
O4       O      0.718260000000     0.718260000000     0.281740000000     0          
C2       C      0.249000000000     0.528450000000     0.072330000000     0          
O1       O      0.277700000000     0.672380000000     0.185410000000     0          
C3       C      0.247000000000     0.516960000000     0.108650000000     0          
H1       H      0.245800000000     0.531500000000     0.128500000000     0          
C6       C      0.220800000000     0.634020000000     0.122770000000     0          
H2       H      0.200300000000     0.647100000000     0.127200000000     0          
C7       C      0.220500000000     0.607860000000     0.097700000000     0          
H3       H      0.199600000000     0.602400000000     0.085700000000     0          
C1       C      0.250000000000     0.590320000000     0.090320000000     0          
C4       C      0.250000000000     0.562660000000     0.062660000000     0          
C5       C      0.250000000000     0.640810000000     0.140810000000     0          
C9       C      0.250000000000     0.668270000000     0.168270000000     0          
N1       N      0.249500000000     0.500000000000     0.051000000000     0          
Co1      Co     0.250000000000     0.500000000000     0.000000000000     0          
C8       C      0.305600000000     0.500000000000     0.000000000000     0          
O2       O      0.336600000000     0.500000000000     0.000000000000     0          
Zr1      Zr     0.284960000000     0.715040000000     0.221630000000     0          
O3       O      0.255580000000     0.744420000000     0.192000000000     0          
Zr2?     Zr     0.299330000000     0.700670000000     0.233590000000     0          
O4       O      0.281740000000     0.718260000000     0.281740000000     0          
C2       C      0.471550000000     0.751000000000     0.927670000000     0          
O1       O      0.327620000000     0.722300000000     0.814590000000     0          
C3       C      0.483040000000     0.753000000000     0.891350000000     0          
H1       H      0.468500000000     0.754200000000     0.871500000000     0          
C6       C      0.365980000000     0.779200000000     0.877230000000     0          
H2       H      0.352900000000     0.799700000000     0.872800000000     0          
C7       C      0.392140000000     0.779500000000     0.902300000000     0          
H3       H      0.397600000000     0.800400000000     0.914300000000     0          
C1       C      0.409680000000     0.750000000000     0.909680000000     0          
C4       C      0.437340000000     0.750000000000     0.937340000000     0          
C5       C      0.359190000000     0.750000000000     0.859190000000     0          
C9       C      0.331730000000     0.750000000000     0.831730000000     0          
N1       N      0.500000000000     0.750500000000     0.949000000000     0          
Zr1      Zr     0.284960000000     0.715040000000     0.778370000000     0          
O3       O      0.255580000000     0.744420000000     0.808000000000     0          
Zr2?     Zr     0.299330000000     0.700670000000     0.766410000000     0          
O4       O      0.281740000000     0.718260000000     0.718260000000     0          
C2       C      0.249000000000     0.471550000000     0.927670000000     0          
O1       O      0.277700000000     0.327620000000     0.814590000000     0          
C3       C      0.247000000000     0.483040000000     0.891350000000     0          
H1       H      0.245800000000     0.468500000000     0.871500000000     0          
C6       C      0.220800000000     0.365980000000     0.877230000000     0          
H2       H      0.200300000000     0.352900000000     0.872800000000     0          
C7       C      0.220500000000     0.392140000000     0.902300000000     0          
H3       H      0.199600000000     0.397600000000     0.914300000000     0          
C1       C      0.250000000000     0.409680000000     0.909680000000     0          
C4       C      0.250000000000     0.437340000000     0.937340000000     0          
C5       C      0.250000000000     0.359190000000     0.859190000000     0          
C9       C      0.250000000000     0.331730000000     0.831730000000     0          
N1       N      0.249500000000     0.500000000000     0.949000000000     0          
Zr1      Zr     0.284960000000     0.284960000000     0.778370000000     0          
O3       O      0.255580000000     0.255580000000     0.808000000000     0          
Zr2?     Zr     0.299330000000     0.299330000000     0.766410000000     0          
O4       O      0.281740000000     0.281740000000     0.718260000000     0          
C2       C      0.528450000000     0.249000000000     0.927670000000     0          
O1       O      0.672380000000     0.277700000000     0.814590000000     0          
C3       C      0.516960000000     0.247000000000     0.891350000000     0          
H1       H      0.531500000000     0.245800000000     0.871500000000     0          
C6       C      0.634020000000     0.220800000000     0.877230000000     0          
H2       H      0.647100000000     0.200300000000     0.872800000000     0          
C7       C      0.607860000000     0.220500000000     0.902300000000     0          
H3       H      0.602400000000     0.199600000000     0.914300000000     0          
C1       C      0.590320000000     0.250000000000     0.909680000000     0          
C4       C      0.562660000000     0.250000000000     0.937340000000     0          
C5       C      0.640810000000     0.250000000000     0.859190000000     0          
C9       C      0.668270000000     0.250000000000     0.831730000000     0          
N1       N      0.500000000000     0.249500000000     0.949000000000     0          
Zr1      Zr     0.715040000000     0.284960000000     0.778370000000     0          
O3       O      0.744420000000     0.255580000000     0.808000000000     0          
Zr2?     Zr     0.700670000000     0.299330000000     0.766410000000     0          
O4       O      0.718260000000     0.281740000000     0.718260000000     0          
C2       C      0.751000000000     0.528450000000     0.927670000000     0          
O1       O      0.722300000000     0.672380000000     0.814590000000     0          
C3       C      0.753000000000     0.516960000000     0.891350000000     0          
H1       H      0.754200000000     0.531500000000     0.871500000000     0          
C6       C      0.779200000000     0.634020000000     0.877230000000     0          
H2       H      0.799700000000     0.647100000000     0.872800000000     0          
C7       C      0.779500000000     0.607860000000     0.902300000000     0          
H3       H      0.800400000000     0.602400000000     0.914300000000     0          
C1       C      0.750000000000     0.590320000000     0.909680000000     0          
C4       C      0.750000000000     0.562660000000     0.937340000000     0          
C5       C      0.750000000000     0.640810000000     0.859190000000     0          
C9       C      0.750000000000     0.668270000000     0.831730000000     0          
N1       N      0.750500000000     0.500000000000     0.949000000000     0          
Zr1      Zr     0.715040000000     0.715040000000     0.778370000000     0          
O3       O      0.744420000000     0.744420000000     0.808000000000     0          
Zr2?     Zr     0.700670000000     0.700670000000     0.766410000000     0          
O4       O      0.718260000000     0.718260000000     0.718260000000     0          
C2       C      0.072330000000     0.471550000000     0.249000000000     0          
O1       O      0.185410000000     0.327620000000     0.277700000000     0          
C3       C      0.108650000000     0.483040000000     0.247000000000     0          
H1       H      0.128500000000     0.468500000000     0.245800000000     0          
C6       C      0.122770000000     0.365980000000     0.220800000000     0          
H2       H      0.127200000000     0.352900000000     0.200300000000     0          
C7       C      0.097700000000     0.392140000000     0.220500000000     0          
H3       H      0.085700000000     0.397600000000     0.199600000000     0          
C1       C      0.090320000000     0.409680000000     0.250000000000     0          
C4       C      0.062660000000     0.437340000000     0.250000000000     0          
C5       C      0.140810000000     0.359190000000     0.250000000000     0          
C9       C      0.168270000000     0.331730000000     0.250000000000     0          
N1       N      0.051000000000     0.500000000000     0.249500000000     0          
Co1      Co     0.000000000000     0.500000000000     0.250000000000     0          
C8       C      0.000000000000     0.500000000000     0.305600000000     0          
O2       O      0.000000000000     0.500000000000     0.336600000000     0          
Zr1      Zr     0.221630000000     0.284960000000     0.284960000000     0          
O3       O      0.192000000000     0.255580000000     0.255580000000     0          
Zr2?     Zr     0.233590000000     0.299330000000     0.299330000000     0          
C2       C      0.528450000000     0.072330000000     0.249000000000     0          
O1       O      0.672380000000     0.185410000000     0.277700000000     0          
C3       C      0.516960000000     0.108650000000     0.247000000000     0          
H1       H      0.531500000000     0.128500000000     0.245800000000     0          
C6       C      0.634020000000     0.122770000000     0.220800000000     0          
H2       H      0.647100000000     0.127200000000     0.200300000000     0          
C7       C      0.607860000000     0.097700000000     0.220500000000     0          
H3       H      0.602400000000     0.085700000000     0.199600000000     0          
C1       C      0.590320000000     0.090320000000     0.250000000000     0          
C4       C      0.562660000000     0.062660000000     0.250000000000     0          
C5       C      0.640810000000     0.140810000000     0.250000000000     0          
C9       C      0.668270000000     0.168270000000     0.250000000000     0          
N1       N      0.500000000000     0.051000000000     0.249500000000     0          
Co1      Co     0.500000000000     0.000000000000     0.250000000000     0          
C8       C      0.500000000000     0.000000000000     0.305600000000     0          
O2       O      0.500000000000     0.000000000000     0.336600000000     0          
Zr1      Zr     0.715040000000     0.221630000000     0.284960000000     0          
O3       O      0.744420000000     0.192000000000     0.255580000000     0          
Zr2?     Zr     0.700670000000     0.233590000000     0.299330000000     0          
C2       C      0.927670000000     0.528450000000     0.249000000000     0          
O1       O      0.814590000000     0.672380000000     0.277700000000     0          
C3       C      0.891350000000     0.516960000000     0.247000000000     0          
H1       H      0.871500000000     0.531500000000     0.245800000000     0          
C6       C      0.877230000000     0.634020000000     0.220800000000     0          
H2       H      0.872800000000     0.647100000000     0.200300000000     0          
C7       C      0.902300000000     0.607860000000     0.220500000000     0          
H3       H      0.914300000000     0.602400000000     0.199600000000     0          
C1       C      0.909680000000     0.590320000000     0.250000000000     0          
C4       C      0.937340000000     0.562660000000     0.250000000000     0          
C5       C      0.859190000000     0.640810000000     0.250000000000     0          
C9       C      0.831730000000     0.668270000000     0.250000000000     0          
N1       N      0.949000000000     0.500000000000     0.249500000000     0          
Zr1      Zr     0.778370000000     0.715040000000     0.284960000000     0          
O3       O      0.808000000000     0.744420000000     0.255580000000     0          
Zr2?     Zr     0.766410000000     0.700670000000     0.299330000000     0          
C2       C      0.471550000000     0.927670000000     0.249000000000     0          
O1       O      0.327620000000     0.814590000000     0.277700000000     0          
C3       C      0.483040000000     0.891350000000     0.247000000000     0          
H1       H      0.468500000000     0.871500000000     0.245800000000     0          
C6       C      0.365980000000     0.877230000000     0.220800000000     0          
H2       H      0.352900000000     0.872800000000     0.200300000000     0          
C7       C      0.392140000000     0.902300000000     0.220500000000     0          
H3       H      0.397600000000     0.914300000000     0.199600000000     0          
C1       C      0.409680000000     0.909680000000     0.250000000000     0          
C4       C      0.437340000000     0.937340000000     0.250000000000     0          
C5       C      0.359190000000     0.859190000000     0.250000000000     0          
C9       C      0.331730000000     0.831730000000     0.250000000000     0          
N1       N      0.500000000000     0.949000000000     0.249500000000     0          
Zr1      Zr     0.284960000000     0.778370000000     0.284960000000     0          
O3       O      0.255580000000     0.808000000000     0.255580000000     0          
Zr2?     Zr     0.299330000000     0.766410000000     0.299330000000     0          
C2       C      0.072330000000     0.528450000000     0.751000000000     0          
O1       O      0.185410000000     0.672380000000     0.722300000000     0          
C3       C      0.108650000000     0.516960000000     0.753000000000     0          
H1       H      0.128500000000     0.531500000000     0.754200000000     0          
C6       C      0.122770000000     0.634020000000     0.779200000000     0          
H2       H      0.127200000000     0.647100000000     0.799700000000     0          
C7       C      0.097700000000     0.607860000000     0.779500000000     0          
H3       H      0.085700000000     0.602400000000     0.800400000000     0          
C1       C      0.090320000000     0.590320000000     0.750000000000     0          
C4       C      0.062660000000     0.562660000000     0.750000000000     0          
C5       C      0.140810000000     0.640810000000     0.750000000000     0          
C9       C      0.168270000000     0.668270000000     0.750000000000     0          
N1       N      0.051000000000     0.500000000000     0.750500000000     0          
Co1      Co     0.000000000000     0.500000000000     0.750000000000     0          
C8       C      0.000000000000     0.500000000000     0.694400000000     0          
O2       O      0.000000000000     0.500000000000     0.663400000000     0          
Zr1      Zr     0.221630000000     0.715040000000     0.715040000000     0          
O3       O      0.192000000000     0.744420000000     0.744420000000     0          
Zr2?     Zr     0.233590000000     0.700670000000     0.700670000000     0          
C2       C      0.471550000000     0.072330000000     0.751000000000     0          
O1       O      0.327620000000     0.185410000000     0.722300000000     0          
C3       C      0.483040000000     0.108650000000     0.753000000000     0          
H1       H      0.468500000000     0.128500000000     0.754200000000     0          
C6       C      0.365980000000     0.122770000000     0.779200000000     0          
H2       H      0.352900000000     0.127200000000     0.799700000000     0          
C7       C      0.392140000000     0.097700000000     0.779500000000     0          
H3       H      0.397600000000     0.085700000000     0.800400000000     0          
C1       C      0.409680000000     0.090320000000     0.750000000000     0          
C4       C      0.437340000000     0.062660000000     0.750000000000     0          
C5       C      0.359190000000     0.140810000000     0.750000000000     0          
C9       C      0.331730000000     0.168270000000     0.750000000000     0          
N1       N      0.500000000000     0.051000000000     0.750500000000     0          
Co1      Co     0.500000000000     0.000000000000     0.750000000000     0          
C8       C      0.500000000000     0.000000000000     0.694400000000     0          
O2       O      0.500000000000     0.000000000000     0.663400000000     0          
Zr1      Zr     0.284960000000     0.221630000000     0.715040000000     0          
O3       O      0.255580000000     0.192000000000     0.744420000000     0          
Zr2?     Zr     0.299330000000     0.233590000000     0.700670000000     0          
C2       C      0.927670000000     0.471550000000     0.751000000000     0          
O1       O      0.814590000000     0.327620000000     0.722300000000     0          
C3       C      0.891350000000     0.483040000000     0.753000000000     0          
H1       H      0.871500000000     0.468500000000     0.754200000000     0          
C6       C      0.877230000000     0.365980000000     0.779200000000     0          
H2       H      0.872800000000     0.352900000000     0.799700000000     0          
C7       C      0.902300000000     0.392140000000     0.779500000000     0          
H3       H      0.914300000000     0.397600000000     0.800400000000     0          
C1       C      0.909680000000     0.409680000000     0.750000000000     0          
C4       C      0.937340000000     0.437340000000     0.750000000000     0          
C5       C      0.859190000000     0.359190000000     0.750000000000     0          
C9       C      0.831730000000     0.331730000000     0.750000000000     0          
N1       N      0.949000000000     0.500000000000     0.750500000000     0          
Zr1      Zr     0.778370000000     0.284960000000     0.715040000000     0          
O3       O      0.808000000000     0.255580000000     0.744420000000     0          
Zr2?     Zr     0.766410000000     0.299330000000     0.700670000000     0          
C2       C      0.528450000000     0.927670000000     0.751000000000     0          
O1       O      0.672380000000     0.814590000000     0.722300000000     0          
C3       C      0.516960000000     0.891350000000     0.753000000000     0          
H1       H      0.531500000000     0.871500000000     0.754200000000     0          
C6       C      0.634020000000     0.877230000000     0.779200000000     0          
H2       H      0.647100000000     0.872800000000     0.799700000000     0          
C7       C      0.607860000000     0.902300000000     0.779500000000     0          
H3       H      0.602400000000     0.914300000000     0.800400000000     0          
C1       C      0.590320000000     0.909680000000     0.750000000000     0          
C4       C      0.562660000000     0.937340000000     0.750000000000     0          
C5       C      0.640810000000     0.859190000000     0.750000000000     0          
C9       C      0.668270000000     0.831730000000     0.750000000000     0          
N1       N      0.500000000000     0.949000000000     0.750500000000     0          
Zr1      Zr     0.715040000000     0.778370000000     0.715040000000     0          
O3       O      0.744420000000     0.808000000000     0.744420000000     0          
Zr2?     Zr     0.700670000000     0.766410000000     0.700670000000     0          
C2       C      0.249000000000     0.072330000000     0.471550000000     0          
O1       O      0.277700000000     0.185410000000     0.327620000000     0          
C3       C      0.247000000000     0.108650000000     0.483040000000     0          
H1       H      0.245800000000     0.128500000000     0.468500000000     0          
C6       C      0.220800000000     0.122770000000     0.365980000000     0          
H2       H      0.200300000000     0.127200000000     0.352900000000     0          
C7       C      0.220500000000     0.097700000000     0.392140000000     0          
H3       H      0.199600000000     0.085700000000     0.397600000000     0          
C1       C      0.250000000000     0.090320000000     0.409680000000     0          
C4       C      0.250000000000     0.062660000000     0.437340000000     0          
C5       C      0.250000000000     0.140810000000     0.359190000000     0          
C9       C      0.250000000000     0.168270000000     0.331730000000     0          
N1       N      0.249500000000     0.051000000000     0.500000000000     0          
Co1      Co     0.250000000000     0.000000000000     0.500000000000     0          
C8       C      0.305600000000     0.000000000000     0.500000000000     0          
O2       O      0.336600000000     0.000000000000     0.500000000000     0          
Zr1      Zr     0.284960000000     0.221630000000     0.284960000000     0          
O3       O      0.255580000000     0.192000000000     0.255580000000     0          
Zr2?     Zr     0.299330000000     0.233590000000     0.299330000000     0          
C2       C      0.249000000000     0.927670000000     0.528450000000     0          
O1       O      0.277700000000     0.814590000000     0.672380000000     0          
C3       C      0.247000000000     0.891350000000     0.516960000000     0          
H1       H      0.245800000000     0.871500000000     0.531500000000     0          
C6       C      0.220800000000     0.877230000000     0.634020000000     0          
H2       H      0.200300000000     0.872800000000     0.647100000000     0          
C7       C      0.220500000000     0.902300000000     0.607860000000     0          
H3       H      0.199600000000     0.914300000000     0.602400000000     0          
C1       C      0.250000000000     0.909680000000     0.590320000000     0          
C4       C      0.250000000000     0.937340000000     0.562660000000     0          
C5       C      0.250000000000     0.859190000000     0.640810000000     0          
C9       C      0.250000000000     0.831730000000     0.668270000000     0          
N1       N      0.249500000000     0.949000000000     0.500000000000     0          
Zr1      Zr     0.284960000000     0.778370000000     0.715040000000     0          
O3       O      0.255580000000     0.808000000000     0.744420000000     0          
Zr2?     Zr     0.299330000000     0.766410000000     0.700670000000     0          
C2       C      0.072330000000     0.249000000000     0.528450000000     0          
O1       O      0.185410000000     0.277700000000     0.672380000000     0          
C3       C      0.108650000000     0.247000000000     0.516960000000     0          
H1       H      0.128500000000     0.245800000000     0.531500000000     0          
C6       C      0.122770000000     0.220800000000     0.634020000000     0          
H2       H      0.127200000000     0.200300000000     0.647100000000     0          
C7       C      0.097700000000     0.220500000000     0.607860000000     0          
H3       H      0.085700000000     0.199600000000     0.602400000000     0          
C1       C      0.090320000000     0.250000000000     0.590320000000     0          
C4       C      0.062660000000     0.250000000000     0.562660000000     0          
C5       C      0.140810000000     0.250000000000     0.640810000000     0          
C9       C      0.168270000000     0.250000000000     0.668270000000     0          
N1       N      0.051000000000     0.249500000000     0.500000000000     0          
Co1      Co     0.000000000000     0.250000000000     0.500000000000     0          
C8       C      0.000000000000     0.305600000000     0.500000000000     0          
O2       O      0.000000000000     0.336600000000     0.500000000000     0          
Zr1      Zr     0.221630000000     0.284960000000     0.715040000000     0          
O3       O      0.192000000000     0.255580000000     0.744420000000     0          
Zr2?     Zr     0.233590000000     0.299330000000     0.700670000000     0          
C2       C      0.751000000000     0.072330000000     0.528450000000     0          
O1       O      0.722300000000     0.185410000000     0.672380000000     0          
C3       C      0.753000000000     0.108650000000     0.516960000000     0          
H1       H      0.754200000000     0.128500000000     0.531500000000     0          
C6       C      0.779200000000     0.122770000000     0.634020000000     0          
H2       H      0.799700000000     0.127200000000     0.647100000000     0          
C7       C      0.779500000000     0.097700000000     0.607860000000     0          
H3       H      0.800400000000     0.085700000000     0.602400000000     0          
C1       C      0.750000000000     0.090320000000     0.590320000000     0          
C4       C      0.750000000000     0.062660000000     0.562660000000     0          
C5       C      0.750000000000     0.140810000000     0.640810000000     0          
C9       C      0.750000000000     0.168270000000     0.668270000000     0          
N1       N      0.750500000000     0.051000000000     0.500000000000     0          
Co1      Co     0.750000000000     0.000000000000     0.500000000000     0          
C8       C      0.694400000000     0.000000000000     0.500000000000     0          
O2       O      0.663400000000     0.000000000000     0.500000000000     0          
Zr1      Zr     0.715040000000     0.221630000000     0.715040000000     0          
O3       O      0.744420000000     0.192000000000     0.744420000000     0          
Zr2?     Zr     0.700670000000     0.233590000000     0.700670000000     0          
C2       C      0.927670000000     0.751000000000     0.528450000000     0          
O1       O      0.814590000000     0.722300000000     0.672380000000     0          
C3       C      0.891350000000     0.753000000000     0.516960000000     0          
H1       H      0.871500000000     0.754200000000     0.531500000000     0          
C6       C      0.877230000000     0.779200000000     0.634020000000     0          
H2       H      0.872800000000     0.799700000000     0.647100000000     0          
C7       C      0.902300000000     0.779500000000     0.607860000000     0          
H3       H      0.914300000000     0.800400000000     0.602400000000     0          
C1       C      0.909680000000     0.750000000000     0.590320000000     0          
C4       C      0.937340000000     0.750000000000     0.562660000000     0          
C5       C      0.859190000000     0.750000000000     0.640810000000     0          
C9       C      0.831730000000     0.750000000000     0.668270000000     0          
N1       N      0.949000000000     0.750500000000     0.500000000000     0          
Co1      Co     0.000000000000     0.750000000000     0.500000000000     0          
C8       C      0.000000000000     0.694400000000     0.500000000000     0          
O2       O      0.000000000000     0.663400000000     0.500000000000     0          
Zr1      Zr     0.778370000000     0.715040000000     0.715040000000     0          
O3       O      0.808000000000     0.744420000000     0.744420000000     0          
Zr2?     Zr     0.766410000000     0.700670000000     0.700670000000     0          
C2       C      0.751000000000     0.927670000000     0.471550000000     0          
O1       O      0.722300000000     0.814590000000     0.327620000000     0          
C3       C      0.753000000000     0.891350000000     0.483040000000     0          
H1       H      0.754200000000     0.871500000000     0.468500000000     0          
C6       C      0.779200000000     0.877230000000     0.365980000000     0          
H2       H      0.799700000000     0.872800000000     0.352900000000     0          
C7       C      0.779500000000     0.902300000000     0.392140000000     0          
H3       H      0.800400000000     0.914300000000     0.397600000000     0          
C1       C      0.750000000000     0.909680000000     0.409680000000     0          
C4       C      0.750000000000     0.937340000000     0.437340000000     0          
C5       C      0.750000000000     0.859190000000     0.359190000000     0          
C9       C      0.750000000000     0.831730000000     0.331730000000     0          
N1       N      0.750500000000     0.949000000000     0.500000000000     0          
Zr1      Zr     0.715040000000     0.778370000000     0.284960000000     0          
O3       O      0.744420000000     0.808000000000     0.255580000000     0          
Zr2?     Zr     0.700670000000     0.766410000000     0.299330000000     0          
C2       C      0.072330000000     0.751000000000     0.471550000000     0          
O1       O      0.185410000000     0.722300000000     0.327620000000     0          
C3       C      0.108650000000     0.753000000000     0.483040000000     0          
H1       H      0.128500000000     0.754200000000     0.468500000000     0          
C6       C      0.122770000000     0.779200000000     0.365980000000     0          
H2       H      0.127200000000     0.799700000000     0.352900000000     0          
C7       C      0.097700000000     0.779500000000     0.392140000000     0          
H3       H      0.085700000000     0.800400000000     0.397600000000     0          
C1       C      0.090320000000     0.750000000000     0.409680000000     0          
C4       C      0.062660000000     0.750000000000     0.437340000000     0          
C5       C      0.140810000000     0.750000000000     0.359190000000     0          
C9       C      0.168270000000     0.750000000000     0.331730000000     0          
N1       N      0.051000000000     0.750500000000     0.500000000000     0          
Zr1      Zr     0.221630000000     0.715040000000     0.284960000000     0          
O3       O      0.192000000000     0.744420000000     0.255580000000     0          
Zr2?     Zr     0.233590000000     0.700670000000     0.299330000000     0          
C2       C      0.927670000000     0.249000000000     0.471550000000     0          
O1       O      0.814590000000     0.277700000000     0.327620000000     0          
C3       C      0.891350000000     0.247000000000     0.483040000000     0          
H1       H      0.871500000000     0.245800000000     0.468500000000     0          
C6       C      0.877230000000     0.220800000000     0.365980000000     0          
H2       H      0.872800000000     0.200300000000     0.352900000000     0          
C7       C      0.902300000000     0.220500000000     0.392140000000     0          
H3       H      0.914300000000     0.199600000000     0.397600000000     0          
C1       C      0.909680000000     0.250000000000     0.409680000000     0          
C4       C      0.937340000000     0.250000000000     0.437340000000     0          
C5       C      0.859190000000     0.250000000000     0.359190000000     0          
C9       C      0.831730000000     0.250000000000     0.331730000000     0          
N1       N      0.949000000000     0.249500000000     0.500000000000     0          
Zr1      Zr     0.778370000000     0.284960000000     0.284960000000     0          
O3       O      0.808000000000     0.255580000000     0.255580000000     0          
Zr2?     Zr     0.766410000000     0.299330000000     0.299330000000     0          
C2       C      0.528450000000     0.751000000000     0.927670000000     0          
O1       O      0.672380000000     0.722300000000     0.814590000000     0          
C3       C      0.516960000000     0.753000000000     0.891350000000     0          
H1       H      0.531500000000     0.754200000000     0.871500000000     0          
C6       C      0.634020000000     0.779200000000     0.877230000000     0          
H2       H      0.647100000000     0.799700000000     0.872800000000     0          
C7       C      0.607860000000     0.779500000000     0.902300000000     0          
H3       H      0.602400000000     0.800400000000     0.914300000000     0          
C1       C      0.590320000000     0.750000000000     0.909680000000     0          
C4       C      0.562660000000     0.750000000000     0.937340000000     0          
C5       C      0.640810000000     0.750000000000     0.859190000000     0          
C9       C      0.668270000000     0.750000000000     0.831730000000     0          
C2       C      0.249000000000     0.528450000000     0.927670000000     0          
O1       O      0.277700000000     0.672380000000     0.814590000000     0          
C3       C      0.247000000000     0.516960000000     0.891350000000     0          
H1       H      0.245800000000     0.531500000000     0.871500000000     0          
C6       C      0.220800000000     0.634020000000     0.877230000000     0          
H2       H      0.200300000000     0.647100000000     0.872800000000     0          
C7       C      0.220500000000     0.607860000000     0.902300000000     0          
H3       H      0.199600000000     0.602400000000     0.914300000000     0          
C1       C      0.250000000000     0.590320000000     0.909680000000     0          
C4       C      0.250000000000     0.562660000000     0.937340000000     0          
C5       C      0.250000000000     0.640810000000     0.859190000000     0          
C9       C      0.250000000000     0.668270000000     0.831730000000     0          
C2       C      0.471550000000     0.249000000000     0.927670000000     0          
O1       O      0.327620000000     0.277700000000     0.814590000000     0          
C3       C      0.483040000000     0.247000000000     0.891350000000     0          
H1       H      0.468500000000     0.245800000000     0.871500000000     0          
C6       C      0.365980000000     0.220800000000     0.877230000000     0          
H2       H      0.352900000000     0.200300000000     0.872800000000     0          
C7       C      0.392140000000     0.220500000000     0.902300000000     0          
H3       H      0.397600000000     0.199600000000     0.914300000000     0          
C1       C      0.409680000000     0.250000000000     0.909680000000     0          
C4       C      0.437340000000     0.250000000000     0.937340000000     0          
C5       C      0.359190000000     0.250000000000     0.859190000000     0          
C9       C      0.331730000000     0.250000000000     0.831730000000     0          
C2       C      0.751000000000     0.471550000000     0.927670000000     0          
O1       O      0.722300000000     0.327620000000     0.814590000000     0          
C3       C      0.753000000000     0.483040000000     0.891350000000     0          
H1       H      0.754200000000     0.468500000000     0.871500000000     0          
C6       C      0.779200000000     0.365980000000     0.877230000000     0          
H2       H      0.799700000000     0.352900000000     0.872800000000     0          
C7       C      0.779500000000     0.392140000000     0.902300000000     0          
H3       H      0.800400000000     0.397600000000     0.914300000000     0          
C1       C      0.750000000000     0.409680000000     0.909680000000     0          
C4       C      0.750000000000     0.437340000000     0.937340000000     0          
C5       C      0.750000000000     0.359190000000     0.859190000000     0          
C9       C      0.750000000000     0.331730000000     0.831730000000     0          
C2       C      0.528450000000     0.249000000000     0.072330000000     0          
O1       O      0.672380000000     0.277700000000     0.185410000000     0          
C3       C      0.516960000000     0.247000000000     0.108650000000     0          
H1       H      0.531500000000     0.245800000000     0.128500000000     0          
C6       C      0.634020000000     0.220800000000     0.122770000000     0          
H2       H      0.647100000000     0.200300000000     0.127200000000     0          
C7       C      0.607860000000     0.220500000000     0.097700000000     0          
H3       H      0.602400000000     0.199600000000     0.085700000000     0          
C1       C      0.590320000000     0.250000000000     0.090320000000     0          
C4       C      0.562660000000     0.250000000000     0.062660000000     0          
C5       C      0.640810000000     0.250000000000     0.140810000000     0          
C9       C      0.668270000000     0.250000000000     0.168270000000     0          
C2       C      0.751000000000     0.528450000000     0.072330000000     0          
O1       O      0.722300000000     0.672380000000     0.185410000000     0          
C3       C      0.753000000000     0.516960000000     0.108650000000     0          
H1       H      0.754200000000     0.531500000000     0.128500000000     0          
C6       C      0.779200000000     0.634020000000     0.122770000000     0          
H2       H      0.799700000000     0.647100000000     0.127200000000     0          
C7       C      0.779500000000     0.607860000000     0.097700000000     0          
H3       H      0.800400000000     0.602400000000     0.085700000000     0          
C1       C      0.750000000000     0.590320000000     0.090320000000     0          
C4       C      0.750000000000     0.562660000000     0.062660000000     0          
C5       C      0.750000000000     0.640810000000     0.140810000000     0          
C9       C      0.750000000000     0.668270000000     0.168270000000     0          
C2       C      0.471550000000     0.751000000000     0.072330000000     0          
O1       O      0.327620000000     0.722300000000     0.185410000000     0          
C3       C      0.483040000000     0.753000000000     0.108650000000     0          
H1       H      0.468500000000     0.754200000000     0.128500000000     0          
C6       C      0.365980000000     0.779200000000     0.122770000000     0          
H2       H      0.352900000000     0.799700000000     0.127200000000     0          
C7       C      0.392140000000     0.779500000000     0.097700000000     0          
H3       H      0.397600000000     0.800400000000     0.085700000000     0          
C1       C      0.409680000000     0.750000000000     0.090320000000     0          
C4       C      0.437340000000     0.750000000000     0.062660000000     0          
C5       C      0.359190000000     0.750000000000     0.140810000000     0          
C9       C      0.331730000000     0.750000000000     0.168270000000     0          
C2       C      0.249000000000     0.471550000000     0.072330000000     0          
O1       O      0.277700000000     0.327620000000     0.185410000000     0          
C3       C      0.247000000000     0.483040000000     0.108650000000     0          
H1       H      0.245800000000     0.468500000000     0.128500000000     0          
C6       C      0.220800000000     0.365980000000     0.122770000000     0          
H2       H      0.200300000000     0.352900000000     0.127200000000     0          
C7       C      0.220500000000     0.392140000000     0.097700000000     0          
H3       H      0.199600000000     0.397600000000     0.085700000000     0          
C1       C      0.250000000000     0.409680000000     0.090320000000     0          
C4       C      0.250000000000     0.437340000000     0.062660000000     0          
C5       C      0.250000000000     0.359190000000     0.140810000000     0          
C9       C      0.250000000000     0.331730000000     0.168270000000     0          
C2       C      0.927670000000     0.528450000000     0.751000000000     0          
O1       O      0.814590000000     0.672380000000     0.722300000000     0          
C3       C      0.891350000000     0.516960000000     0.753000000000     0          
H1       H      0.871500000000     0.531500000000     0.754200000000     0          
C6       C      0.877230000000     0.634020000000     0.779200000000     0          
H2       H      0.872800000000     0.647100000000     0.799700000000     0          
C7       C      0.902300000000     0.607860000000     0.779500000000     0          
H3       H      0.914300000000     0.602400000000     0.800400000000     0          
C1       C      0.909680000000     0.590320000000     0.750000000000     0          
C4       C      0.937340000000     0.562660000000     0.750000000000     0          
C5       C      0.859190000000     0.640810000000     0.750000000000     0          
C9       C      0.831730000000     0.668270000000     0.750000000000     0          
C2       C      0.471550000000     0.927670000000     0.751000000000     0          
O1       O      0.327620000000     0.814590000000     0.722300000000     0          
C3       C      0.483040000000     0.891350000000     0.753000000000     0          
H1       H      0.468500000000     0.871500000000     0.754200000000     0          
C6       C      0.365980000000     0.877230000000     0.779200000000     0          
H2       H      0.352900000000     0.872800000000     0.799700000000     0          
C7       C      0.392140000000     0.902300000000     0.779500000000     0          
H3       H      0.397600000000     0.914300000000     0.800400000000     0          
C1       C      0.409680000000     0.909680000000     0.750000000000     0          
C4       C      0.437340000000     0.937340000000     0.750000000000     0          
C5       C      0.359190000000     0.859190000000     0.750000000000     0          
C9       C      0.331730000000     0.831730000000     0.750000000000     0          
C2       C      0.072330000000     0.471550000000     0.751000000000     0          
O1       O      0.185410000000     0.327620000000     0.722300000000     0          
C3       C      0.108650000000     0.483040000000     0.753000000000     0          
H1       H      0.128500000000     0.468500000000     0.754200000000     0          
C6       C      0.122770000000     0.365980000000     0.779200000000     0          
H2       H      0.127200000000     0.352900000000     0.799700000000     0          
C7       C      0.097700000000     0.392140000000     0.779500000000     0          
H3       H      0.085700000000     0.397600000000     0.800400000000     0          
C1       C      0.090320000000     0.409680000000     0.750000000000     0          
C4       C      0.062660000000     0.437340000000     0.750000000000     0          
C5       C      0.140810000000     0.359190000000     0.750000000000     0          
C9       C      0.168270000000     0.331730000000     0.750000000000     0          
C2       C      0.528450000000     0.072330000000     0.751000000000     0          
O1       O      0.672380000000     0.185410000000     0.722300000000     0          
C3       C      0.516960000000     0.108650000000     0.753000000000     0          
H1       H      0.531500000000     0.128500000000     0.754200000000     0          
C6       C      0.634020000000     0.122770000000     0.779200000000     0          
H2       H      0.647100000000     0.127200000000     0.799700000000     0          
C7       C      0.607860000000     0.097700000000     0.779500000000     0          
H3       H      0.602400000000     0.085700000000     0.800400000000     0          
C1       C      0.590320000000     0.090320000000     0.750000000000     0          
C4       C      0.562660000000     0.062660000000     0.750000000000     0          
C5       C      0.640810000000     0.140810000000     0.750000000000     0          
C9       C      0.668270000000     0.168270000000     0.750000000000     0          
C2       C      0.927670000000     0.471550000000     0.249000000000     0          
O1       O      0.814590000000     0.327620000000     0.277700000000     0          
C3       C      0.891350000000     0.483040000000     0.247000000000     0          
H1       H      0.871500000000     0.468500000000     0.245800000000     0          
C6       C      0.877230000000     0.365980000000     0.220800000000     0          
H2       H      0.872800000000     0.352900000000     0.200300000000     0          
C7       C      0.902300000000     0.392140000000     0.220500000000     0          
H3       H      0.914300000000     0.397600000000     0.199600000000     0          
C1       C      0.909680000000     0.409680000000     0.250000000000     0          
C4       C      0.937340000000     0.437340000000     0.250000000000     0          
C5       C      0.859190000000     0.359190000000     0.250000000000     0          
C9       C      0.831730000000     0.331730000000     0.250000000000     0          
C2       C      0.528450000000     0.927670000000     0.249000000000     0          
O1       O      0.672380000000     0.814590000000     0.277700000000     0          
C3       C      0.516960000000     0.891350000000     0.247000000000     0          
H1       H      0.531500000000     0.871500000000     0.245800000000     0          
C6       C      0.634020000000     0.877230000000     0.220800000000     0          
H2       H      0.647100000000     0.872800000000     0.200300000000     0          
C7       C      0.607860000000     0.902300000000     0.220500000000     0          
H3       H      0.602400000000     0.914300000000     0.199600000000     0          
C1       C      0.590320000000     0.909680000000     0.250000000000     0          
C4       C      0.562660000000     0.937340000000     0.250000000000     0          
C5       C      0.640810000000     0.859190000000     0.250000000000     0          
C9       C      0.668270000000     0.831730000000     0.250000000000     0          
C2       C      0.072330000000     0.528450000000     0.249000000000     0          
O1       O      0.185410000000     0.672380000000     0.277700000000     0          
C3       C      0.108650000000     0.516960000000     0.247000000000     0          
H1       H      0.128500000000     0.531500000000     0.245800000000     0          
C6       C      0.122770000000     0.634020000000     0.220800000000     0          
H2       H      0.127200000000     0.647100000000     0.200300000000     0          
C7       C      0.097700000000     0.607860000000     0.220500000000     0          
H3       H      0.085700000000     0.602400000000     0.199600000000     0          
C1       C      0.090320000000     0.590320000000     0.250000000000     0          
C4       C      0.062660000000     0.562660000000     0.250000000000     0          
C5       C      0.140810000000     0.640810000000     0.250000000000     0          
C9       C      0.168270000000     0.668270000000     0.250000000000     0          
C2       C      0.471550000000     0.072330000000     0.249000000000     0          
O1       O      0.327620000000     0.185410000000     0.277700000000     0          
C3       C      0.483040000000     0.108650000000     0.247000000000     0          
H1       H      0.468500000000     0.128500000000     0.245800000000     0          
C6       C      0.365980000000     0.122770000000     0.220800000000     0          
H2       H      0.352900000000     0.127200000000     0.200300000000     0          
C7       C      0.392140000000     0.097700000000     0.220500000000     0          
H3       H      0.397600000000     0.085700000000     0.199600000000     0          
C1       C      0.409680000000     0.090320000000     0.250000000000     0          
C4       C      0.437340000000     0.062660000000     0.250000000000     0          
C5       C      0.359190000000     0.140810000000     0.250000000000     0          
C9       C      0.331730000000     0.168270000000     0.250000000000     0          
C2       C      0.751000000000     0.927670000000     0.528450000000     0          
O1       O      0.722300000000     0.814590000000     0.672380000000     0          
C3       C      0.753000000000     0.891350000000     0.516960000000     0          
H1       H      0.754200000000     0.871500000000     0.531500000000     0          
C6       C      0.779200000000     0.877230000000     0.634020000000     0          
H2       H      0.799700000000     0.872800000000     0.647100000000     0          
C7       C      0.779500000000     0.902300000000     0.607860000000     0          
H3       H      0.800400000000     0.914300000000     0.602400000000     0          
C1       C      0.750000000000     0.909680000000     0.590320000000     0          
C4       C      0.750000000000     0.937340000000     0.562660000000     0          
C5       C      0.750000000000     0.859190000000     0.640810000000     0          
C9       C      0.750000000000     0.831730000000     0.668270000000     0          
C2       C      0.751000000000     0.072330000000     0.471550000000     0          
O1       O      0.722300000000     0.185410000000     0.327620000000     0          
C3       C      0.753000000000     0.108650000000     0.483040000000     0          
H1       H      0.754200000000     0.128500000000     0.468500000000     0          
C6       C      0.779200000000     0.122770000000     0.365980000000     0          
H2       H      0.799700000000     0.127200000000     0.352900000000     0          
C7       C      0.779500000000     0.097700000000     0.392140000000     0          
H3       H      0.800400000000     0.085700000000     0.397600000000     0          
C1       C      0.750000000000     0.090320000000     0.409680000000     0          
C4       C      0.750000000000     0.062660000000     0.437340000000     0          
C5       C      0.750000000000     0.140810000000     0.359190000000     0          
C9       C      0.750000000000     0.168270000000     0.331730000000     0          
C2       C      0.927670000000     0.751000000000     0.471550000000     0          
O1       O      0.814590000000     0.722300000000     0.327620000000     0          
C3       C      0.891350000000     0.753000000000     0.483040000000     0          
H1       H      0.871500000000     0.754200000000     0.468500000000     0          
C6       C      0.877230000000     0.779200000000     0.365980000000     0          
H2       H      0.872800000000     0.799700000000     0.352900000000     0          
C7       C      0.902300000000     0.779500000000     0.392140000000     0          
H3       H      0.914300000000     0.800400000000     0.397600000000     0          
C1       C      0.909680000000     0.750000000000     0.409680000000     0          
C4       C      0.937340000000     0.750000000000     0.437340000000     0          
C5       C      0.859190000000     0.750000000000     0.359190000000     0          
C9       C      0.831730000000     0.750000000000     0.331730000000     0          
C2       C      0.249000000000     0.927670000000     0.471550000000     0          
O1       O      0.277700000000     0.814590000000     0.327620000000     0          
C3       C      0.247000000000     0.891350000000     0.483040000000     0          
H1       H      0.245800000000     0.871500000000     0.468500000000     0          
C6       C      0.220800000000     0.877230000000     0.365980000000     0          
H2       H      0.200300000000     0.872800000000     0.352900000000     0          
C7       C      0.220500000000     0.902300000000     0.392140000000     0          
H3       H      0.199600000000     0.914300000000     0.397600000000     0          
C1       C      0.250000000000     0.909680000000     0.409680000000     0          
C4       C      0.250000000000     0.937340000000     0.437340000000     0          
C5       C      0.250000000000     0.859190000000     0.359190000000     0          
C9       C      0.250000000000     0.831730000000     0.331730000000     0          
C2       C      0.072330000000     0.249000000000     0.471550000000     0          
O1       O      0.185410000000     0.277700000000     0.327620000000     0          
C3       C      0.108650000000     0.247000000000     0.483040000000     0          
H1       H      0.128500000000     0.245800000000     0.468500000000     0          
C6       C      0.122770000000     0.220800000000     0.365980000000     0          
H2       H      0.127200000000     0.200300000000     0.352900000000     0          
C7       C      0.097700000000     0.220500000000     0.392140000000     0          
H3       H      0.085700000000     0.199600000000     0.397600000000     0          
C1       C      0.090320000000     0.250000000000     0.409680000000     0          
C4       C      0.062660000000     0.250000000000     0.437340000000     0          
C5       C      0.140810000000     0.250000000000     0.359190000000     0          
C9       C      0.168270000000     0.250000000000     0.331730000000     0          
C2       C      0.249000000000     0.072330000000     0.528450000000     0          
O1       O      0.277700000000     0.185410000000     0.672380000000     0          
C3       C      0.247000000000     0.108650000000     0.516960000000     0          
H1       H      0.245800000000     0.128500000000     0.531500000000     0          
C6       C      0.220800000000     0.122770000000     0.634020000000     0          
H2       H      0.200300000000     0.127200000000     0.647100000000     0          
C7       C      0.220500000000     0.097700000000     0.607860000000     0          
H3       H      0.199600000000     0.085700000000     0.602400000000     0          
C1       C      0.250000000000     0.090320000000     0.590320000000     0          
C4       C      0.250000000000     0.062660000000     0.562660000000     0          
C5       C      0.250000000000     0.140810000000     0.640810000000     0          
C9       C      0.250000000000     0.168270000000     0.668270000000     0          
C2       C      0.927670000000     0.249000000000     0.528450000000     0          
O1       O      0.814590000000     0.277700000000     0.672380000000     0          
C3       C      0.891350000000     0.247000000000     0.516960000000     0          
H1       H      0.871500000000     0.245800000000     0.531500000000     0          
C6       C      0.877230000000     0.220800000000     0.634020000000     0          
H2       H      0.872800000000     0.200300000000     0.647100000000     0          
C7       C      0.902300000000     0.220500000000     0.607860000000     0          
H3       H      0.914300000000     0.199600000000     0.602400000000     0          
C1       C      0.909680000000     0.250000000000     0.590320000000     0          
C4       C      0.937340000000     0.250000000000     0.562660000000     0          
C5       C      0.859190000000     0.250000000000     0.640810000000     0          
C9       C      0.831730000000     0.250000000000     0.668270000000     0          
C2       C      0.072330000000     0.751000000000     0.528450000000     0          
O1       O      0.185410000000     0.722300000000     0.672380000000     0          
C3       C      0.108650000000     0.753000000000     0.516960000000     0          
H1       H      0.128500000000     0.754200000000     0.531500000000     0          
C6       C      0.122770000000     0.779200000000     0.634020000000     0          
H2       H      0.127200000000     0.799700000000     0.647100000000     0          
C7       C      0.097700000000     0.779500000000     0.607860000000     0          
H3       H      0.085700000000     0.800400000000     0.602400000000     0          
C1       C      0.090320000000     0.750000000000     0.590320000000     0          
C4       C      0.062660000000     0.750000000000     0.562660000000     0          
C5       C      0.140810000000     0.750000000000     0.640810000000     0          
C9       C      0.168270000000     0.750000000000     0.668270000000     0          
C2       C      0.971550000000     0.749000000000     0.572330000000     0          
O1       O      0.827620000000     0.777700000000     0.685410000000     0          
C3       C      0.983040000000     0.747000000000     0.608650000000     0          
H1       H      0.968500000000     0.745800000000     0.628500000000     0          
C6       C      0.865980000000     0.720800000000     0.622770000000     0          
H2       H      0.852900000000     0.700300000000     0.627200000000     0          
C7       C      0.892140000000     0.720500000000     0.597700000000     0          
H3       H      0.897600000000     0.699600000000     0.585700000000     0          
N1       N      0.000000000000     0.749500000000     0.551000000000     0          
C8       C      0.000000000000     0.805600000000     0.500000000000     0          
O2       O      0.000000000000     0.836600000000     0.500000000000     0          
Zr1      Zr     0.784960000000     0.784960000000     0.721630000000     0          
O3       O      0.755580000000     0.755580000000     0.692000000000     0          
Zr2?     Zr     0.799330000000     0.799330000000     0.733590000000     0          
O4       O      0.781740000000     0.781740000000     0.781740000000     0          
C2       C      0.251000000000     0.971550000000     0.572330000000     0          
O1       O      0.222300000000     0.827620000000     0.685410000000     0          
C3       C      0.253000000000     0.983040000000     0.608650000000     0          
H1       H      0.254200000000     0.968500000000     0.628500000000     0          
C6       C      0.279200000000     0.865980000000     0.622770000000     0          
H2       H      0.299700000000     0.852900000000     0.627200000000     0          
C7       C      0.279500000000     0.892140000000     0.597700000000     0          
H3       H      0.300400000000     0.897600000000     0.585700000000     0          
N1       N      0.250500000000     0.000000000000     0.551000000000     0          
C8       C      0.194400000000     0.000000000000     0.500000000000     0          
O2       O      0.163400000000     0.000000000000     0.500000000000     0          
Zr1      Zr     0.215040000000     0.784960000000     0.721630000000     0          
O3       O      0.244420000000     0.755580000000     0.692000000000     0          
Zr2?     Zr     0.200670000000     0.799330000000     0.733590000000     0          
O4       O      0.218260000000     0.781740000000     0.781740000000     0          
C2       C      0.028450000000     0.251000000000     0.572330000000     0          
O1       O      0.172380000000     0.222300000000     0.685410000000     0          
C3       C      0.016960000000     0.253000000000     0.608650000000     0          
H1       H      0.031500000000     0.254200000000     0.628500000000     0          
C6       C      0.134020000000     0.279200000000     0.622770000000     0          
H2       H      0.147100000000     0.299700000000     0.627200000000     0          
C7       C      0.107860000000     0.279500000000     0.597700000000     0          
H3       H      0.102400000000     0.300400000000     0.585700000000     0          
N1       N      0.000000000000     0.250500000000     0.551000000000     0          
C8       C      0.000000000000     0.194400000000     0.500000000000     0          
O2       O      0.000000000000     0.163400000000     0.500000000000     0          
Zr1      Zr     0.215040000000     0.215040000000     0.721630000000     0          
O3       O      0.244420000000     0.244420000000     0.692000000000     0          
Zr2?     Zr     0.200670000000     0.200670000000     0.733590000000     0          
O4       O      0.218260000000     0.218260000000     0.781740000000     0          
C2       C      0.749000000000     0.028450000000     0.572330000000     0          
O1       O      0.777700000000     0.172380000000     0.685410000000     0          
C3       C      0.747000000000     0.016960000000     0.608650000000     0          
H1       H      0.745800000000     0.031500000000     0.628500000000     0          
C6       C      0.720800000000     0.134020000000     0.622770000000     0          
H2       H      0.700300000000     0.147100000000     0.627200000000     0          
C7       C      0.720500000000     0.107860000000     0.597700000000     0          
H3       H      0.699600000000     0.102400000000     0.585700000000     0          
N1       N      0.749500000000     0.000000000000     0.551000000000     0          
C8       C      0.805600000000     0.000000000000     0.500000000000     0          
O2       O      0.836600000000     0.000000000000     0.500000000000     0          
Zr1      Zr     0.784960000000     0.215040000000     0.721630000000     0          
O3       O      0.755580000000     0.244420000000     0.692000000000     0          
Zr2?     Zr     0.799330000000     0.200670000000     0.733590000000     0          
O4       O      0.781740000000     0.218260000000     0.781740000000     0          
C2       C      0.971550000000     0.251000000000     0.427670000000     0          
O1       O      0.827620000000     0.222300000000     0.314590000000     0          
C3       C      0.983040000000     0.253000000000     0.391350000000     0          
H1       H      0.968500000000     0.254200000000     0.371500000000     0          
C6       C      0.865980000000     0.279200000000     0.377230000000     0          
H2       H      0.852900000000     0.299700000000     0.372800000000     0          
C7       C      0.892140000000     0.279500000000     0.402300000000     0          
H3       H      0.897600000000     0.300400000000     0.414300000000     0          
N1       N      0.000000000000     0.250500000000     0.449000000000     0          
Zr1      Zr     0.784960000000     0.215040000000     0.278370000000     0          
O3       O      0.755580000000     0.244420000000     0.308000000000     0          
Zr2?     Zr     0.799330000000     0.200670000000     0.266410000000     0          
O4       O      0.781740000000     0.218260000000     0.218260000000     0          
C2       C      0.749000000000     0.971550000000     0.427670000000     0          
O1       O      0.777700000000     0.827620000000     0.314590000000     0          
C3       C      0.747000000000     0.983040000000     0.391350000000     0          
H1       H      0.745800000000     0.968500000000     0.371500000000     0          
C6       C      0.720800000000     0.865980000000     0.377230000000     0          
H2       H      0.700300000000     0.852900000000     0.372800000000     0          
C7       C      0.720500000000     0.892140000000     0.402300000000     0          
H3       H      0.699600000000     0.897600000000     0.414300000000     0          
N1       N      0.749500000000     0.000000000000     0.449000000000     0          
Zr1      Zr     0.784960000000     0.784960000000     0.278370000000     0          
O3       O      0.755580000000     0.755580000000     0.308000000000     0          
Zr2?     Zr     0.799330000000     0.799330000000     0.266410000000     0          
O4       O      0.781740000000     0.781740000000     0.218260000000     0          
C2       C      0.028450000000     0.749000000000     0.427670000000     0          
O1       O      0.172380000000     0.777700000000     0.314590000000     0          
C3       C      0.016960000000     0.747000000000     0.391350000000     0          
H1       H      0.031500000000     0.745800000000     0.371500000000     0          
C6       C      0.134020000000     0.720800000000     0.377230000000     0          
H2       H      0.147100000000     0.700300000000     0.372800000000     0          
C7       C      0.107860000000     0.720500000000     0.402300000000     0          
H3       H      0.102400000000     0.699600000000     0.414300000000     0          
N1       N      0.000000000000     0.749500000000     0.449000000000     0          
Zr1      Zr     0.215040000000     0.784960000000     0.278370000000     0          
O3       O      0.244420000000     0.755580000000     0.308000000000     0          
Zr2?     Zr     0.200670000000     0.799330000000     0.266410000000     0          
O4       O      0.218260000000     0.781740000000     0.218260000000     0          
C2       C      0.251000000000     0.028450000000     0.427670000000     0          
O1       O      0.222300000000     0.172380000000     0.314590000000     0          
C3       C      0.253000000000     0.016960000000     0.391350000000     0          
H1       H      0.254200000000     0.031500000000     0.371500000000     0          
C6       C      0.279200000000     0.134020000000     0.377230000000     0          
H2       H      0.299700000000     0.147100000000     0.372800000000     0          
C7       C      0.279500000000     0.107860000000     0.402300000000     0          
H3       H      0.300400000000     0.102400000000     0.414300000000     0          
N1       N      0.250500000000     0.000000000000     0.449000000000     0          
Zr1      Zr     0.215040000000     0.215040000000     0.278370000000     0          
O3       O      0.244420000000     0.244420000000     0.308000000000     0          
Zr2?     Zr     0.200670000000     0.200670000000     0.266410000000     0          
O4       O      0.218260000000     0.218260000000     0.218260000000     0          
C2       C      0.572330000000     0.971550000000     0.749000000000     0          
O1       O      0.685410000000     0.827620000000     0.777700000000     0          
C3       C      0.608650000000     0.983040000000     0.747000000000     0          
H1       H      0.628500000000     0.968500000000     0.745800000000     0          
C6       C      0.622770000000     0.865980000000     0.720800000000     0          
H2       H      0.627200000000     0.852900000000     0.700300000000     0          
C7       C      0.597700000000     0.892140000000     0.720500000000     0          
H3       H      0.585700000000     0.897600000000     0.699600000000     0          
N1       N      0.551000000000     0.000000000000     0.749500000000     0          
C8       C      0.500000000000     0.000000000000     0.805600000000     0          
O2       O      0.500000000000     0.000000000000     0.836600000000     0          
Zr1      Zr     0.721630000000     0.784960000000     0.784960000000     0          
O3       O      0.692000000000     0.755580000000     0.755580000000     0          
Zr2?     Zr     0.733590000000     0.799330000000     0.799330000000     0          
C2       C      0.028450000000     0.572330000000     0.749000000000     0          
O1       O      0.172380000000     0.685410000000     0.777700000000     0          
C3       C      0.016960000000     0.608650000000     0.747000000000     0          
H1       H      0.031500000000     0.628500000000     0.745800000000     0          
C6       C      0.134020000000     0.622770000000     0.720800000000     0          
H2       H      0.147100000000     0.627200000000     0.700300000000     0          
C7       C      0.107860000000     0.597700000000     0.720500000000     0          
H3       H      0.102400000000     0.585700000000     0.699600000000     0          
N1       N      0.000000000000     0.551000000000     0.749500000000     0          
C8       C      0.000000000000     0.500000000000     0.805600000000     0          
O2       O      0.000000000000     0.500000000000     0.836600000000     0          
Zr1      Zr     0.215040000000     0.721630000000     0.784960000000     0          
O3       O      0.244420000000     0.692000000000     0.755580000000     0          
Zr2?     Zr     0.200670000000     0.733590000000     0.799330000000     0          
C2       C      0.427670000000     0.028450000000     0.749000000000     0          
O1       O      0.314590000000     0.172380000000     0.777700000000     0          
C3       C      0.391350000000     0.016960000000     0.747000000000     0          
H1       H      0.371500000000     0.031500000000     0.745800000000     0          
C6       C      0.377230000000     0.134020000000     0.720800000000     0          
H2       H      0.372800000000     0.147100000000     0.700300000000     0          
C7       C      0.402300000000     0.107860000000     0.720500000000     0          
H3       H      0.414300000000     0.102400000000     0.699600000000     0          
N1       N      0.449000000000     0.000000000000     0.749500000000     0          
Zr1      Zr     0.278370000000     0.215040000000     0.784960000000     0          
O3       O      0.308000000000     0.244420000000     0.755580000000     0          
Zr2?     Zr     0.266410000000     0.200670000000     0.799330000000     0          
C2       C      0.971550000000     0.427670000000     0.749000000000     0          
O1       O      0.827620000000     0.314590000000     0.777700000000     0          
C3       C      0.983040000000     0.391350000000     0.747000000000     0          
H1       H      0.968500000000     0.371500000000     0.745800000000     0          
C6       C      0.865980000000     0.377230000000     0.720800000000     0          
H2       H      0.852900000000     0.372800000000     0.700300000000     0          
C7       C      0.892140000000     0.402300000000     0.720500000000     0          
H3       H      0.897600000000     0.414300000000     0.699600000000     0          
N1       N      0.000000000000     0.449000000000     0.749500000000     0          
Zr1      Zr     0.784960000000     0.278370000000     0.784960000000     0          
O3       O      0.755580000000     0.308000000000     0.755580000000     0          
Zr2?     Zr     0.799330000000     0.266410000000     0.799330000000     0          
C2       C      0.572330000000     0.028450000000     0.251000000000     0          
O1       O      0.685410000000     0.172380000000     0.222300000000     0          
C3       C      0.608650000000     0.016960000000     0.253000000000     0          
H1       H      0.628500000000     0.031500000000     0.254200000000     0          
C6       C      0.622770000000     0.134020000000     0.279200000000     0          
H2       H      0.627200000000     0.147100000000     0.299700000000     0          
C7       C      0.597700000000     0.107860000000     0.279500000000     0          
H3       H      0.585700000000     0.102400000000     0.300400000000     0          
N1       N      0.551000000000     0.000000000000     0.250500000000     0          
C8       C      0.500000000000     0.000000000000     0.194400000000     0          
O2       O      0.500000000000     0.000000000000     0.163400000000     0          
Zr1      Zr     0.721630000000     0.215040000000     0.215040000000     0          
O3       O      0.692000000000     0.244420000000     0.244420000000     0          
Zr2?     Zr     0.733590000000     0.200670000000     0.200670000000     0          
C2       C      0.971550000000     0.572330000000     0.251000000000     0          
O1       O      0.827620000000     0.685410000000     0.222300000000     0          
C3       C      0.983040000000     0.608650000000     0.253000000000     0          
H1       H      0.968500000000     0.628500000000     0.254200000000     0          
C6       C      0.865980000000     0.622770000000     0.279200000000     0          
H2       H      0.852900000000     0.627200000000     0.299700000000     0          
C7       C      0.892140000000     0.597700000000     0.279500000000     0          
H3       H      0.897600000000     0.585700000000     0.300400000000     0          
N1       N      0.000000000000     0.551000000000     0.250500000000     0          
C8       C      0.000000000000     0.500000000000     0.194400000000     0          
O2       O      0.000000000000     0.500000000000     0.163400000000     0          
Zr1      Zr     0.784960000000     0.721630000000     0.215040000000     0          
O3       O      0.755580000000     0.692000000000     0.244420000000     0          
Zr2?     Zr     0.799330000000     0.733590000000     0.200670000000     0          
C2       C      0.427670000000     0.971550000000     0.251000000000     0          
O1       O      0.314590000000     0.827620000000     0.222300000000     0          
C3       C      0.391350000000     0.983040000000     0.253000000000     0          
H1       H      0.371500000000     0.968500000000     0.254200000000     0          
C6       C      0.377230000000     0.865980000000     0.279200000000     0          
H2       H      0.372800000000     0.852900000000     0.299700000000     0          
C7       C      0.402300000000     0.892140000000     0.279500000000     0          
H3       H      0.414300000000     0.897600000000     0.300400000000     0          
N1       N      0.449000000000     0.000000000000     0.250500000000     0          
Zr1      Zr     0.278370000000     0.784960000000     0.215040000000     0          
O3       O      0.308000000000     0.755580000000     0.244420000000     0          
Zr2?     Zr     0.266410000000     0.799330000000     0.200670000000     0          
C2       C      0.028450000000     0.427670000000     0.251000000000     0          
O1       O      0.172380000000     0.314590000000     0.222300000000     0          
C3       C      0.016960000000     0.391350000000     0.253000000000     0          
H1       H      0.031500000000     0.371500000000     0.254200000000     0          
C6       C      0.134020000000     0.377230000000     0.279200000000     0          
H2       H      0.147100000000     0.372800000000     0.299700000000     0          
C7       C      0.107860000000     0.402300000000     0.279500000000     0          
H3       H      0.102400000000     0.414300000000     0.300400000000     0          
N1       N      0.000000000000     0.449000000000     0.250500000000     0          
Zr1      Zr     0.215040000000     0.278370000000     0.215040000000     0          
O3       O      0.244420000000     0.308000000000     0.244420000000     0          
Zr2?     Zr     0.200670000000     0.266410000000     0.200670000000     0          
C2       C      0.749000000000     0.572330000000     0.971550000000     0          
O1       O      0.777700000000     0.685410000000     0.827620000000     0          
C3       C      0.747000000000     0.608650000000     0.983040000000     0          
H1       H      0.745800000000     0.628500000000     0.968500000000     0          
C6       C      0.720800000000     0.622770000000     0.865980000000     0          
H2       H      0.700300000000     0.627200000000     0.852900000000     0          
C7       C      0.720500000000     0.597700000000     0.892140000000     0          
H3       H      0.699600000000     0.585700000000     0.897600000000     0          
N1       N      0.749500000000     0.551000000000     0.000000000000     0          
C8       C      0.805600000000     0.500000000000     0.000000000000     0          
O2       O      0.836600000000     0.500000000000     0.000000000000     0          
Zr1      Zr     0.784960000000     0.721630000000     0.784960000000     0          
O3       O      0.755580000000     0.692000000000     0.755580000000     0          
Zr2?     Zr     0.799330000000     0.733590000000     0.799330000000     0          
C2       C      0.749000000000     0.427670000000     0.028450000000     0          
O1       O      0.777700000000     0.314590000000     0.172380000000     0          
C3       C      0.747000000000     0.391350000000     0.016960000000     0          
H1       H      0.745800000000     0.371500000000     0.031500000000     0          
C6       C      0.720800000000     0.377230000000     0.134020000000     0          
H2       H      0.700300000000     0.372800000000     0.147100000000     0          
C7       C      0.720500000000     0.402300000000     0.107860000000     0          
H3       H      0.699600000000     0.414300000000     0.102400000000     0          
N1       N      0.749500000000     0.449000000000     0.000000000000     0          
Zr1      Zr     0.784960000000     0.278370000000     0.215040000000     0          
O3       O      0.755580000000     0.308000000000     0.244420000000     0          
Zr2?     Zr     0.799330000000     0.266410000000     0.200670000000     0          
C2       C      0.572330000000     0.749000000000     0.028450000000     0          
O1       O      0.685410000000     0.777700000000     0.172380000000     0          
C3       C      0.608650000000     0.747000000000     0.016960000000     0          
H1       H      0.628500000000     0.745800000000     0.031500000000     0          
C6       C      0.622770000000     0.720800000000     0.134020000000     0          
H2       H      0.627200000000     0.700300000000     0.147100000000     0          
C7       C      0.597700000000     0.720500000000     0.107860000000     0          
H3       H      0.585700000000     0.699600000000     0.102400000000     0          
N1       N      0.551000000000     0.749500000000     0.000000000000     0          
C8       C      0.500000000000     0.805600000000     0.000000000000     0          
O2       O      0.500000000000     0.836600000000     0.000000000000     0          
Zr1      Zr     0.721630000000     0.784960000000     0.215040000000     0          
O3       O      0.692000000000     0.755580000000     0.244420000000     0          
Zr2?     Zr     0.733590000000     0.799330000000     0.200670000000     0          
C2       C      0.251000000000     0.572330000000     0.028450000000     0          
O1       O      0.222300000000     0.685410000000     0.172380000000     0          
C3       C      0.253000000000     0.608650000000     0.016960000000     0          
H1       H      0.254200000000     0.628500000000     0.031500000000     0          
C6       C      0.279200000000     0.622770000000     0.134020000000     0          
H2       H      0.299700000000     0.627200000000     0.147100000000     0          
C7       C      0.279500000000     0.597700000000     0.107860000000     0          
H3       H      0.300400000000     0.585700000000     0.102400000000     0          
N1       N      0.250500000000     0.551000000000     0.000000000000     0          
C8       C      0.194400000000     0.500000000000     0.000000000000     0          
O2       O      0.163400000000     0.500000000000     0.000000000000     0          
Zr1      Zr     0.215040000000     0.721630000000     0.215040000000     0          
O3       O      0.244420000000     0.692000000000     0.244420000000     0          
Zr2?     Zr     0.200670000000     0.733590000000     0.200670000000     0          
C2       C      0.427670000000     0.251000000000     0.028450000000     0          
O1       O      0.314590000000     0.222300000000     0.172380000000     0          
C3       C      0.391350000000     0.253000000000     0.016960000000     0          
H1       H      0.371500000000     0.254200000000     0.031500000000     0          
C6       C      0.377230000000     0.279200000000     0.134020000000     0          
H2       H      0.372800000000     0.299700000000     0.147100000000     0          
C7       C      0.402300000000     0.279500000000     0.107860000000     0          
H3       H      0.414300000000     0.300400000000     0.102400000000     0          
N1       N      0.449000000000     0.250500000000     0.000000000000     0          
C8       C      0.500000000000     0.194400000000     0.000000000000     0          
O2       O      0.500000000000     0.163400000000     0.000000000000     0          
Zr1      Zr     0.278370000000     0.215040000000     0.215040000000     0          
O3       O      0.308000000000     0.244420000000     0.244420000000     0          
Zr2?     Zr     0.266410000000     0.200670000000     0.200670000000     0          
C2       C      0.251000000000     0.427670000000     0.971550000000     0          
O1       O      0.222300000000     0.314590000000     0.827620000000     0          
C3       C      0.253000000000     0.391350000000     0.983040000000     0          
H1       H      0.254200000000     0.371500000000     0.968500000000     0          
C6       C      0.279200000000     0.377230000000     0.865980000000     0          
H2       H      0.299700000000     0.372800000000     0.852900000000     0          
C7       C      0.279500000000     0.402300000000     0.892140000000     0          
H3       H      0.300400000000     0.414300000000     0.897600000000     0          
N1       N      0.250500000000     0.449000000000     0.000000000000     0          
Zr1      Zr     0.215040000000     0.278370000000     0.784960000000     0          
O3       O      0.244420000000     0.308000000000     0.755580000000     0          
Zr2?     Zr     0.200670000000     0.266410000000     0.799330000000     0          
C2       C      0.572330000000     0.251000000000     0.971550000000     0          
O1       O      0.685410000000     0.222300000000     0.827620000000     0          
C3       C      0.608650000000     0.253000000000     0.983040000000     0          
H1       H      0.628500000000     0.254200000000     0.968500000000     0          
C6       C      0.622770000000     0.279200000000     0.865980000000     0          
H2       H      0.627200000000     0.299700000000     0.852900000000     0          
C7       C      0.597700000000     0.279500000000     0.892140000000     0          
H3       H      0.585700000000     0.300400000000     0.897600000000     0          
N1       N      0.551000000000     0.250500000000     0.000000000000     0          
Zr1      Zr     0.721630000000     0.215040000000     0.784960000000     0          
O3       O      0.692000000000     0.244420000000     0.755580000000     0          
Zr2?     Zr     0.733590000000     0.200670000000     0.799330000000     0          
C2       C      0.427670000000     0.749000000000     0.971550000000     0          
O1       O      0.314590000000     0.777700000000     0.827620000000     0          
C3       C      0.391350000000     0.747000000000     0.983040000000     0          
H1       H      0.371500000000     0.745800000000     0.968500000000     0          
C6       C      0.377230000000     0.720800000000     0.865980000000     0          
H2       H      0.372800000000     0.700300000000     0.852900000000     0          
C7       C      0.402300000000     0.720500000000     0.892140000000     0          
H3       H      0.414300000000     0.699600000000     0.897600000000     0          
N1       N      0.449000000000     0.749500000000     0.000000000000     0          
Zr1      Zr     0.278370000000     0.784960000000     0.784960000000     0          
O3       O      0.308000000000     0.755580000000     0.755580000000     0          
Zr2?     Zr     0.266410000000     0.799330000000     0.799330000000     0          
C2       C      0.028450000000     0.251000000000     0.427670000000     0          
O1       O      0.172380000000     0.222300000000     0.314590000000     0          
C3       C      0.016960000000     0.253000000000     0.391350000000     0          
H1       H      0.031500000000     0.254200000000     0.371500000000     0          
C6       C      0.134020000000     0.279200000000     0.377230000000     0          
H2       H      0.147100000000     0.299700000000     0.372800000000     0          
C7       C      0.107860000000     0.279500000000     0.402300000000     0          
H3       H      0.102400000000     0.300400000000     0.414300000000     0          
C2       C      0.749000000000     0.028450000000     0.427670000000     0          
O1       O      0.777700000000     0.172380000000     0.314590000000     0          
C3       C      0.747000000000     0.016960000000     0.391350000000     0          
H1       H      0.745800000000     0.031500000000     0.371500000000     0          
C6       C      0.720800000000     0.134020000000     0.377230000000     0          
H2       H      0.700300000000     0.147100000000     0.372800000000     0          
C7       C      0.720500000000     0.107860000000     0.402300000000     0          
H3       H      0.699600000000     0.102400000000     0.414300000000     0          
C2       C      0.971550000000     0.749000000000     0.427670000000     0          
O1       O      0.827620000000     0.777700000000     0.314590000000     0          
C3       C      0.983040000000     0.747000000000     0.391350000000     0          
H1       H      0.968500000000     0.745800000000     0.371500000000     0          
C6       C      0.865980000000     0.720800000000     0.377230000000     0          
H2       H      0.852900000000     0.700300000000     0.372800000000     0          
C7       C      0.892140000000     0.720500000000     0.402300000000     0          
H3       H      0.897600000000     0.699600000000     0.414300000000     0          
C2       C      0.251000000000     0.971550000000     0.427670000000     0          
O1       O      0.222300000000     0.827620000000     0.314590000000     0          
C3       C      0.253000000000     0.983040000000     0.391350000000     0          
H1       H      0.254200000000     0.968500000000     0.371500000000     0          
C6       C      0.279200000000     0.865980000000     0.377230000000     0          
H2       H      0.299700000000     0.852900000000     0.372800000000     0          
C7       C      0.279500000000     0.892140000000     0.402300000000     0          
H3       H      0.300400000000     0.897600000000     0.414300000000     0          
C2       C      0.028450000000     0.749000000000     0.572330000000     0          
O1       O      0.172380000000     0.777700000000     0.685410000000     0          
C3       C      0.016960000000     0.747000000000     0.608650000000     0          
H1       H      0.031500000000     0.745800000000     0.628500000000     0          
C6       C      0.134020000000     0.720800000000     0.622770000000     0          
H2       H      0.147100000000     0.700300000000     0.627200000000     0          
C7       C      0.107860000000     0.720500000000     0.597700000000     0          
H3       H      0.102400000000     0.699600000000     0.585700000000     0          
C2       C      0.251000000000     0.028450000000     0.572330000000     0          
O1       O      0.222300000000     0.172380000000     0.685410000000     0          
C3       C      0.253000000000     0.016960000000     0.608650000000     0          
H1       H      0.254200000000     0.031500000000     0.628500000000     0          
C6       C      0.279200000000     0.134020000000     0.622770000000     0          
H2       H      0.299700000000     0.147100000000     0.627200000000     0          
C7       C      0.279500000000     0.107860000000     0.597700000000     0          
H3       H      0.300400000000     0.102400000000     0.585700000000     0          
C2       C      0.971550000000     0.251000000000     0.572330000000     0          
O1       O      0.827620000000     0.222300000000     0.685410000000     0          
C3       C      0.983040000000     0.253000000000     0.608650000000     0          
H1       H      0.968500000000     0.254200000000     0.628500000000     0          
C6       C      0.865980000000     0.279200000000     0.622770000000     0          
H2       H      0.852900000000     0.299700000000     0.627200000000     0          
C7       C      0.892140000000     0.279500000000     0.597700000000     0          
H3       H      0.897600000000     0.300400000000     0.585700000000     0          
C2       C      0.749000000000     0.971550000000     0.572330000000     0          
O1       O      0.777700000000     0.827620000000     0.685410000000     0          
C3       C      0.747000000000     0.983040000000     0.608650000000     0          
H1       H      0.745800000000     0.968500000000     0.628500000000     0          
C6       C      0.720800000000     0.865980000000     0.622770000000     0          
H2       H      0.700300000000     0.852900000000     0.627200000000     0          
C7       C      0.720500000000     0.892140000000     0.597700000000     0          
H3       H      0.699600000000     0.897600000000     0.585700000000     0          
C2       C      0.427670000000     0.028450000000     0.251000000000     0          
O1       O      0.314590000000     0.172380000000     0.222300000000     0          
C3       C      0.391350000000     0.016960000000     0.253000000000     0          
H1       H      0.371500000000     0.031500000000     0.254200000000     0          
C6       C      0.377230000000     0.134020000000     0.279200000000     0          
H2       H      0.372800000000     0.147100000000     0.299700000000     0          
C7       C      0.402300000000     0.107860000000     0.279500000000     0          
H3       H      0.414300000000     0.102400000000     0.300400000000     0          
C2       C      0.971550000000     0.427670000000     0.251000000000     0          
O1       O      0.827620000000     0.314590000000     0.222300000000     0          
C3       C      0.983040000000     0.391350000000     0.253000000000     0          
H1       H      0.968500000000     0.371500000000     0.254200000000     0          
C6       C      0.865980000000     0.377230000000     0.279200000000     0          
H2       H      0.852900000000     0.372800000000     0.299700000000     0          
C7       C      0.892140000000     0.402300000000     0.279500000000     0          
H3       H      0.897600000000     0.414300000000     0.300400000000     0          
C2       C      0.572330000000     0.971550000000     0.251000000000     0          
O1       O      0.685410000000     0.827620000000     0.222300000000     0          
C3       C      0.608650000000     0.983040000000     0.253000000000     0          
H1       H      0.628500000000     0.968500000000     0.254200000000     0          
C6       C      0.622770000000     0.865980000000     0.279200000000     0          
H2       H      0.627200000000     0.852900000000     0.299700000000     0          
C7       C      0.597700000000     0.892140000000     0.279500000000     0          
H3       H      0.585700000000     0.897600000000     0.300400000000     0          
C2       C      0.028450000000     0.572330000000     0.251000000000     0          
O1       O      0.172380000000     0.685410000000     0.222300000000     0          
C3       C      0.016960000000     0.608650000000     0.253000000000     0          
H1       H      0.031500000000     0.628500000000     0.254200000000     0          
C6       C      0.134020000000     0.622770000000     0.279200000000     0          
H2       H      0.147100000000     0.627200000000     0.299700000000     0          
C7       C      0.107860000000     0.597700000000     0.279500000000     0          
H3       H      0.102400000000     0.585700000000     0.300400000000     0          
C2       C      0.427670000000     0.971550000000     0.749000000000     0          
O1       O      0.314590000000     0.827620000000     0.777700000000     0          
C3       C      0.391350000000     0.983040000000     0.747000000000     0          
H1       H      0.371500000000     0.968500000000     0.745800000000     0          
C6       C      0.377230000000     0.865980000000     0.720800000000     0          
H2       H      0.372800000000     0.852900000000     0.700300000000     0          
C7       C      0.402300000000     0.892140000000     0.720500000000     0          
H3       H      0.414300000000     0.897600000000     0.699600000000     0          
C2       C      0.028450000000     0.427670000000     0.749000000000     0          
O1       O      0.172380000000     0.314590000000     0.777700000000     0          
C3       C      0.016960000000     0.391350000000     0.747000000000     0          
H1       H      0.031500000000     0.371500000000     0.745800000000     0          
C6       C      0.134020000000     0.377230000000     0.720800000000     0          
H2       H      0.147100000000     0.372800000000     0.700300000000     0          
C7       C      0.107860000000     0.402300000000     0.720500000000     0          
H3       H      0.102400000000     0.414300000000     0.699600000000     0          
C2       C      0.572330000000     0.028450000000     0.749000000000     0          
O1       O      0.685410000000     0.172380000000     0.777700000000     0          
C3       C      0.608650000000     0.016960000000     0.747000000000     0          
H1       H      0.628500000000     0.031500000000     0.745800000000     0          
C6       C      0.622770000000     0.134020000000     0.720800000000     0          
H2       H      0.627200000000     0.147100000000     0.700300000000     0          
C7       C      0.597700000000     0.107860000000     0.720500000000     0          
H3       H      0.585700000000     0.102400000000     0.699600000000     0          
C2       C      0.971550000000     0.572330000000     0.749000000000     0          
O1       O      0.827620000000     0.685410000000     0.777700000000     0          
C3       C      0.983040000000     0.608650000000     0.747000000000     0          
H1       H      0.968500000000     0.628500000000     0.745800000000     0          
C6       C      0.865980000000     0.622770000000     0.720800000000     0          
H2       H      0.852900000000     0.627200000000     0.700300000000     0          
C7       C      0.892140000000     0.597700000000     0.720500000000     0          
H3       H      0.897600000000     0.585700000000     0.699600000000     0          
C2       C      0.251000000000     0.427670000000     0.028450000000     0          
O1       O      0.222300000000     0.314590000000     0.172380000000     0          
C3       C      0.253000000000     0.391350000000     0.016960000000     0          
H1       H      0.254200000000     0.371500000000     0.031500000000     0          
C6       C      0.279200000000     0.377230000000     0.134020000000     0          
H2       H      0.299700000000     0.372800000000     0.147100000000     0          
C7       C      0.279500000000     0.402300000000     0.107860000000     0          
H3       H      0.300400000000     0.414300000000     0.102400000000     0          
C2       C      0.251000000000     0.572330000000     0.971550000000     0          
O1       O      0.222300000000     0.685410000000     0.827620000000     0          
C3       C      0.253000000000     0.608650000000     0.983040000000     0          
H1       H      0.254200000000     0.628500000000     0.968500000000     0          
C6       C      0.279200000000     0.622770000000     0.865980000000     0          
H2       H      0.299700000000     0.627200000000     0.852900000000     0          
C7       C      0.279500000000     0.597700000000     0.892140000000     0          
H3       H      0.300400000000     0.585700000000     0.897600000000     0          
C2       C      0.427670000000     0.251000000000     0.971550000000     0          
O1       O      0.314590000000     0.222300000000     0.827620000000     0          
C3       C      0.391350000000     0.253000000000     0.983040000000     0          
H1       H      0.371500000000     0.254200000000     0.968500000000     0          
C6       C      0.377230000000     0.279200000000     0.865980000000     0          
H2       H      0.372800000000     0.299700000000     0.852900000000     0          
C7       C      0.402300000000     0.279500000000     0.892140000000     0          
H3       H      0.414300000000     0.300400000000     0.897600000000     0          
C2       C      0.749000000000     0.427670000000     0.971550000000     0          
O1       O      0.777700000000     0.314590000000     0.827620000000     0          
C3       C      0.747000000000     0.391350000000     0.983040000000     0          
H1       H      0.745800000000     0.371500000000     0.968500000000     0          
C6       C      0.720800000000     0.377230000000     0.865980000000     0          
H2       H      0.700300000000     0.372800000000     0.852900000000     0          
C7       C      0.720500000000     0.402300000000     0.892140000000     0          
H3       H      0.699600000000     0.414300000000     0.897600000000     0          
C2       C      0.572330000000     0.749000000000     0.971550000000     0          
O1       O      0.685410000000     0.777700000000     0.827620000000     0          
C3       C      0.608650000000     0.747000000000     0.983040000000     0          
H1       H      0.628500000000     0.745800000000     0.968500000000     0          
C6       C      0.622770000000     0.720800000000     0.865980000000     0          
H2       H      0.627200000000     0.700300000000     0.852900000000     0          
C7       C      0.597700000000     0.720500000000     0.892140000000     0          
H3       H      0.585700000000     0.699600000000     0.897600000000     0          
C2       C      0.749000000000     0.572330000000     0.028450000000     0          
O1       O      0.777700000000     0.685410000000     0.172380000000     0          
C3       C      0.747000000000     0.608650000000     0.016960000000     0          
H1       H      0.745800000000     0.628500000000     0.031500000000     0          
C6       C      0.720800000000     0.622770000000     0.134020000000     0          
H2       H      0.700300000000     0.627200000000     0.147100000000     0          
C7       C      0.720500000000     0.597700000000     0.107860000000     0          
H3       H      0.699600000000     0.585700000000     0.102400000000     0          
C2       C      0.427670000000     0.749000000000     0.028450000000     0          
O1       O      0.314590000000     0.777700000000     0.172380000000     0          
C3       C      0.391350000000     0.747000000000     0.016960000000     0          
H1       H      0.371500000000     0.745800000000     0.031500000000     0          
C6       C      0.377230000000     0.720800000000     0.134020000000     0          
H2       H      0.372800000000     0.700300000000     0.147100000000     0          
C7       C      0.402300000000     0.720500000000     0.107860000000     0          
H3       H      0.414300000000     0.699600000000     0.102400000000     0          
C2       C      0.572330000000     0.251000000000     0.028450000000     0          
O1       O      0.685410000000     0.222300000000     0.172380000000     0          
C3       C      0.608650000000     0.253000000000     0.016960000000     0          
H1       H      0.628500000000     0.254200000000     0.031500000000     0          
C6       C      0.622770000000     0.279200000000     0.134020000000     0          
H2       H      0.627200000000     0.299700000000     0.147100000000     0          
C7       C      0.597700000000     0.279500000000     0.107860000000     0          
H3       H      0.585700000000     0.300400000000     0.102400000000     0          


