data_DUWYEB

_audit_creation_method RASPA-1.0
_audit_creation_date 2020-11-2
_audit_author_name 'Rocio Bueno-Perez'

_cell_length_a    29.8884
_cell_length_b    29.8884
_cell_length_c    29.8884
_cell_angle_alpha 90
_cell_angle_beta  90
_cell_angle_gamma 90
_cell_volume      26699.8

_symmetry_cell_setting          triclinic
_symmetry_space_group_name_Hall 'P 1'
_symmetry_space_group_name_H-M  'P 1'
_symmetry_Int_Tables_number     1

_symmetry_equiv_pos_as_xyz 'x,y,z'

loop_
_atom_site_label
_atom_site_type_symbol
_atom_site_fract_x
_atom_site_fract_y
_atom_site_fract_z
_atom_site_charge
C1       C      0.728450000000     0.746700000000     0.514300000000     0          
H2       H      0.710200000000     0.770700000000     0.524400000000     0          
C3       C      0.635100000000     0.677400000000     0.525900000000     0          
C4       C      0.668000000000     0.709600000000     0.526300000000     0          
H5       H      0.609000000000     0.681200000000     0.543700000000     0          
H6       H      0.664800000000     0.735100000000     0.545000000000     0          
C7       C      0.728450000000     0.246700000000     0.014300000000     0          
H8       H      0.710200000000     0.270700000000     0.024400000000     0          
C9       C      0.228450000000     0.246700000000     0.514300000000     0          
H10      H      0.210200000000     0.270700000000     0.524400000000     0          
C11      C      0.271550000000     0.253300000000     0.514300000000     0          
H12      H      0.289800000000     0.229300000000     0.524400000000     0          
C13      C      0.771550000000     0.753300000000     0.514300000000     0          
H14      H      0.789800000000     0.729300000000     0.524400000000     0          
C15      C      0.771550000000     0.246700000000     0.485700000000     0          
H16      H      0.789800000000     0.270700000000     0.475600000000     0          
C17      C      0.728450000000     0.253300000000     0.485700000000     0          
H18      H      0.710200000000     0.229300000000     0.475600000000     0          
C19      C      0.014300000000     0.228450000000     0.746700000000     0          
H20      H      0.024400000000     0.210200000000     0.770700000000     0          
C21      C      0.025900000000     0.135100000000     0.677400000000     0          
C22      C      0.026300000000     0.168000000000     0.709600000000     0          
H23      H      0.043700000000     0.109000000000     0.681200000000     0          
H24      H      0.045000000000     0.164800000000     0.735100000000     0          
C25      C      0.514300000000     0.771550000000     0.753300000000     0          
H26      H      0.524400000000     0.789800000000     0.729300000000     0          
C27      C      0.525900000000     0.864900000000     0.822600000000     0          
C28      C      0.526300000000     0.832000000000     0.790400000000     0          
H29      H      0.543700000000     0.891000000000     0.818800000000     0          
H30      H      0.545000000000     0.835200000000     0.764900000000     0          
C31      C      0.025900000000     0.364900000000     0.822600000000     0          
C32      C      0.026300000000     0.332000000000     0.790400000000     0          
H33      H      0.043700000000     0.391000000000     0.818800000000     0          
H34      H      0.045000000000     0.335200000000     0.764900000000     0          
C35      C      0.485700000000     0.228450000000     0.753300000000     0          
H36      H      0.475600000000     0.210200000000     0.729300000000     0          
C37      C      0.985700000000     0.228450000000     0.253300000000     0          
H38      H      0.975600000000     0.210200000000     0.229300000000     0          
C39      C      0.746700000000     0.514300000000     0.728450000000     0          
H40      H      0.770700000000     0.524400000000     0.710200000000     0          
C41      C      0.746700000000     0.014300000000     0.228450000000     0          
H42      H      0.770700000000     0.024400000000     0.210200000000     0          
C43      C      0.246700000000     0.514300000000     0.228450000000     0          
H44      H      0.270700000000     0.524400000000     0.210200000000     0          
C45      C      0.246700000000     0.014300000000     0.728450000000     0          
H46      H      0.270700000000     0.024400000000     0.710200000000     0          
C47      C      0.677400000000     0.635100000000     0.474100000000     0          
C48      C      0.709600000000     0.668000000000     0.473700000000     0          
H49      H      0.681200000000     0.609000000000     0.456300000000     0          
H50      H      0.735100000000     0.664800000000     0.455000000000     0          
C51      C      0.246700000000     0.728450000000     0.985700000000     0          
H52      H      0.270700000000     0.710200000000     0.975600000000     0          
C53      C      0.253300000000     0.771550000000     0.985700000000     0          
H54      H      0.229300000000     0.789800000000     0.975600000000     0          
C55      C      0.246700000000     0.271550000000     0.014300000000     0          
H56      H      0.270700000000     0.289800000000     0.024400000000     0          
C57      C      0.246700000000     0.771550000000     0.514300000000     0          
H58      H      0.270700000000     0.789800000000     0.524400000000     0          
C59      C      0.253300000000     0.728450000000     0.514300000000     0          
H60      H      0.229300000000     0.710200000000     0.524400000000     0          
C61      C      0.753300000000     0.728450000000     0.014300000000     0          
H62      H      0.729300000000     0.710200000000     0.024400000000     0          
C63      C      0.728450000000     0.514300000000     0.253300000000     0          
H64      H      0.710200000000     0.524400000000     0.229300000000     0          
C65      C      0.728450000000     0.014300000000     0.753300000000     0          
H66      H      0.710200000000     0.024400000000     0.729300000000     0          
C67      C      0.271550000000     0.014300000000     0.246700000000     0          
H68      H      0.289800000000     0.024400000000     0.270700000000     0          
C69      C      0.771550000000     0.485700000000     0.753300000000     0          
H70      H      0.789800000000     0.475600000000     0.729300000000     0          
C71      C      0.514300000000     0.746700000000     0.271550000000     0          
H72      H      0.524400000000     0.770700000000     0.289800000000     0          
C73      C      0.014300000000     0.753300000000     0.728450000000     0          
H74      H      0.024400000000     0.729300000000     0.710200000000     0          
C75      C      0.485700000000     0.746700000000     0.728450000000     0          
H76      H      0.475600000000     0.770700000000     0.710200000000     0          
C77      C      0.985700000000     0.746700000000     0.228450000000     0          
H78      H      0.975600000000     0.770700000000     0.210200000000     0          
H79      H      0.975600000000     0.270700000000     0.710200000000     0          
C80      C      0.974100000000     0.177400000000     0.635100000000     0          
C81      C      0.973700000000     0.209600000000     0.668000000000     0          
H82      H      0.956300000000     0.181200000000     0.609000000000     0          
H83      H      0.955000000000     0.235100000000     0.664800000000     0          
C84      C      0.474100000000     0.822600000000     0.864900000000     0          
C85      C      0.473700000000     0.790400000000     0.832000000000     0          
H86      H      0.456300000000     0.818800000000     0.891000000000     0          
H87      H      0.455000000000     0.764900000000     0.835200000000     0          
C88      C      0.974100000000     0.322600000000     0.864900000000     0          
C89      C      0.973700000000     0.290400000000     0.832000000000     0          
H90      H      0.956300000000     0.318800000000     0.891000000000     0          
H91      H      0.955000000000     0.264900000000     0.835200000000     0          
C92      C      0.771550000000     0.253300000000     0.985700000000     0          
H93      H      0.789800000000     0.229300000000     0.975600000000     0          
C94      C      0.485700000000     0.271550000000     0.253300000000     0          
H95      H      0.475600000000     0.289800000000     0.229300000000     0          
C96      C      0.985700000000     0.271550000000     0.753300000000     0          
H97      H      0.975600000000     0.289800000000     0.729300000000     0          
C98      C      0.025900000000     0.135100000000     0.322600000000     0          
C99      C      0.026300000000     0.168000000000     0.290400000000     0          
H100     H      0.043700000000     0.109000000000     0.318800000000     0          
H101     H      0.045000000000     0.164800000000     0.264900000000     0          
C102     C      0.514300000000     0.271550000000     0.746700000000     0          
H103     H      0.524400000000     0.289800000000     0.770700000000     0          
C104     C      0.014300000000     0.271550000000     0.246700000000     0          
H105     H      0.024400000000     0.289800000000     0.270700000000     0          
C106     C      0.025900000000     0.364900000000     0.177400000000     0          
C107     C      0.026300000000     0.332000000000     0.209600000000     0          
H108     H      0.043700000000     0.391000000000     0.181200000000     0          
H109     H      0.045000000000     0.335200000000     0.235100000000     0          
C110     C      0.253300000000     0.485700000000     0.271550000000     0          
H111     H      0.229300000000     0.475600000000     0.289800000000     0          
C112     C      0.253300000000     0.985700000000     0.771550000000     0          
H113     H      0.229300000000     0.975600000000     0.789800000000     0          
C114     C      0.753300000000     0.985700000000     0.271550000000     0          
H115     H      0.729300000000     0.975600000000     0.289800000000     0          
C116     C      0.253300000000     0.514300000000     0.728450000000     0          
H117     H      0.229300000000     0.524400000000     0.710200000000     0          
C118     C      0.322600000000     0.525900000000     0.635100000000     0          
C119     C      0.290400000000     0.526300000000     0.668000000000     0          
H120     H      0.318800000000     0.543700000000     0.609000000000     0          
H121     H      0.264900000000     0.545000000000     0.664800000000     0          
C122     C      0.177400000000     0.525900000000     0.864900000000     0          
C123     C      0.209600000000     0.526300000000     0.832000000000     0          
H124     H      0.181200000000     0.543700000000     0.891000000000     0          
H125     H      0.235100000000     0.545000000000     0.835200000000     0          
C126     C      0.253300000000     0.228450000000     0.985700000000     0          
H127     H      0.229300000000     0.210200000000     0.975600000000     0          
C128     C      0.746700000000     0.771550000000     0.985700000000     0          
H129     H      0.770700000000     0.789800000000     0.975600000000     0          
C130     C      0.364900000000     0.474100000000     0.677400000000     0          
C131     C      0.332000000000     0.473700000000     0.709600000000     0          
H132     H      0.391000000000     0.456300000000     0.681200000000     0          
H133     H      0.335200000000     0.455000000000     0.735100000000     0          
C134     C      0.771550000000     0.485700000000     0.246700000000     0          
H135     H      0.789800000000     0.475600000000     0.270700000000     0          
C136     C      0.771550000000     0.985700000000     0.746700000000     0          
H137     H      0.789800000000     0.975600000000     0.770700000000     0          
C138     C      0.228450000000     0.485700000000     0.753300000000     0          
H139     H      0.210200000000     0.475600000000     0.729300000000     0          
C140     C      0.135100000000     0.474100000000     0.822600000000     0          
C141     C      0.168000000000     0.473700000000     0.790400000000     0          
H142     H      0.109000000000     0.456300000000     0.818800000000     0          
H143     H      0.164800000000     0.455000000000     0.764900000000     0          
C144     C      0.228450000000     0.985700000000     0.253300000000     0          
H145     H      0.210200000000     0.975600000000     0.229300000000     0          
C146     C      0.485700000000     0.753300000000     0.228450000000     0          
H147     H      0.475600000000     0.729300000000     0.210200000000     0          
C148     C      0.974100000000     0.322600000000     0.135100000000     0          
C149     C      0.973700000000     0.290400000000     0.168000000000     0          
H150     H      0.956300000000     0.318800000000     0.109000000000     0          
H151     H      0.955000000000     0.264900000000     0.164800000000     0          
C152     C      0.985700000000     0.746700000000     0.771550000000     0          
H153     H      0.975600000000     0.770700000000     0.789800000000     0          
C154     C      0.974100000000     0.177400000000     0.364900000000     0          
C155     C      0.973700000000     0.209600000000     0.332000000000     0          
H156     H      0.956300000000     0.181200000000     0.391000000000     0          
H157     H      0.955000000000     0.235100000000     0.335200000000     0          
C158     C      0.014300000000     0.753300000000     0.271550000000     0          
H159     H      0.024400000000     0.729300000000     0.289800000000     0          
C160     C      0.514300000000     0.246700000000     0.228450000000     0          
H161     H      0.524400000000     0.270700000000     0.210200000000     0          
Zr162    Zr     0.582310000000     0.500000000000     0.500000000000     0          
Zr163    Zr     0.582310000000     0.000000000000     0.000000000000     0          
Zr164    Zr     0.082310000000     0.500000000000     0.000000000000     0          
Zr165    Zr     0.082310000000     0.000000000000     0.500000000000     0          
Zr166    Zr     0.417690000000     0.500000000000     0.500000000000     0          
Zr167    Zr     0.417690000000     0.000000000000     0.000000000000     0          
Zr168    Zr     0.917690000000     0.500000000000     0.000000000000     0          
Zr169    Zr     0.917690000000     0.000000000000     0.500000000000     0          
Zr170    Zr     0.500000000000     0.582310000000     0.500000000000     0          
Zr171    Zr     0.500000000000     0.082310000000     0.000000000000     0          
Zr172    Zr     0.000000000000     0.582310000000     0.000000000000     0          
Zr173    Zr     0.000000000000     0.082310000000     0.500000000000     0          
Zr174    Zr     0.500000000000     0.417690000000     0.500000000000     0          
Zr175    Zr     0.500000000000     0.917690000000     0.000000000000     0          
Zr176    Zr     0.000000000000     0.417690000000     0.000000000000     0          
Zr177    Zr     0.000000000000     0.917690000000     0.500000000000     0          
Zr178    Zr     0.500000000000     0.500000000000     0.582310000000     0          
Zr179    Zr     0.500000000000     0.000000000000     0.082310000000     0          
Zr180    Zr     0.000000000000     0.500000000000     0.082310000000     0          
Zr181    Zr     0.000000000000     0.000000000000     0.582310000000     0          
Zr182    Zr     0.500000000000     0.500000000000     0.417690000000     0          
Zr183    Zr     0.500000000000     0.000000000000     0.917690000000     0          
Zr184    Zr     0.000000000000     0.500000000000     0.917690000000     0          
Zr185    Zr     0.000000000000     0.000000000000     0.417690000000     0          
O186     O      0.618340000000     0.564200000000     0.500000000000     0          
O187     O      0.618340000000     0.064200000000     0.000000000000     0          
C188     C      0.628000000000     0.184600000000     0.000000000000     0          
C189     C      0.660800000000     0.217400000000     0.000000000000     0          
H190     H      0.597300000000     0.192800000000     0.000000000000     0          
H191     H      0.652500000000     0.248100000000     0.000000000000     0          
O192     O      0.118340000000     0.564200000000     0.000000000000     0          
C193     C      0.128000000000     0.684600000000     0.000000000000     0          
C194     C      0.160800000000     0.717400000000     0.000000000000     0          
H195     H      0.097300000000     0.692800000000     0.000000000000     0          
H196     H      0.152500000000     0.748100000000     0.000000000000     0          
O197     O      0.118340000000     0.064200000000     0.500000000000     0          
C198     C      0.128000000000     0.184600000000     0.500000000000     0          
C199     C      0.160800000000     0.217400000000     0.500000000000     0          
H200     H      0.097300000000     0.192800000000     0.500000000000     0          
H201     H      0.152500000000     0.248100000000     0.500000000000     0          
O202     O      0.381660000000     0.435800000000     0.500000000000     0          
C203     C      0.372000000000     0.315400000000     0.500000000000     0          
C204     C      0.339200000000     0.282600000000     0.500000000000     0          
H205     H      0.402700000000     0.307200000000     0.500000000000     0          
H206     H      0.347500000000     0.251900000000     0.500000000000     0          
O207     O      0.381660000000     0.935800000000     0.000000000000     0          
C208     C      0.372000000000     0.815400000000     0.000000000000     0          
C209     C      0.339200000000     0.782600000000     0.000000000000     0          
H210     H      0.402700000000     0.807200000000     0.000000000000     0          
H211     H      0.347500000000     0.751900000000     0.000000000000     0          
O212     O      0.881660000000     0.435800000000     0.000000000000     0          
C213     C      0.872000000000     0.315400000000     0.000000000000     0          
C214     C      0.839200000000     0.282600000000     0.000000000000     0          
H215     H      0.902700000000     0.307200000000     0.000000000000     0          
H216     H      0.847500000000     0.251900000000     0.000000000000     0          
O217     O      0.881660000000     0.935800000000     0.500000000000     0          
C218     C      0.872000000000     0.815400000000     0.500000000000     0          
C219     C      0.839200000000     0.782600000000     0.500000000000     0          
H220     H      0.902700000000     0.807200000000     0.500000000000     0          
H221     H      0.847500000000     0.751900000000     0.500000000000     0          
O222     O      0.381660000000     0.564200000000     0.500000000000     0          
C223     C      0.372000000000     0.684600000000     0.500000000000     0          
C224     C      0.339200000000     0.717400000000     0.500000000000     0          
H225     H      0.402700000000     0.692800000000     0.500000000000     0          
H226     H      0.347500000000     0.748100000000     0.500000000000     0          
O227     O      0.381660000000     0.064200000000     0.000000000000     0          
C228     C      0.372000000000     0.184600000000     0.000000000000     0          
C229     C      0.339200000000     0.217400000000     0.000000000000     0          
H230     H      0.402700000000     0.192800000000     0.000000000000     0          
H231     H      0.347500000000     0.248100000000     0.000000000000     0          
O232     O      0.881660000000     0.564200000000     0.000000000000     0          
C233     C      0.872000000000     0.684600000000     0.000000000000     0          
C234     C      0.839200000000     0.717400000000     0.000000000000     0          
H235     H      0.902700000000     0.692800000000     0.000000000000     0          
H236     H      0.847500000000     0.748100000000     0.000000000000     0          
O237     O      0.881660000000     0.064200000000     0.500000000000     0          
C238     C      0.872000000000     0.184600000000     0.500000000000     0          
C239     C      0.839200000000     0.217400000000     0.500000000000     0          
H240     H      0.902700000000     0.192800000000     0.500000000000     0          
H241     H      0.847500000000     0.248100000000     0.500000000000     0          
O242     O      0.618340000000     0.435800000000     0.500000000000     0          
C243     C      0.628000000000     0.315400000000     0.500000000000     0          
C244     C      0.660800000000     0.282600000000     0.500000000000     0          
H245     H      0.597300000000     0.307200000000     0.500000000000     0          
H246     H      0.652500000000     0.251900000000     0.500000000000     0          
O247     O      0.618340000000     0.935800000000     0.000000000000     0          
C248     C      0.628000000000     0.815400000000     0.000000000000     0          
C249     C      0.660800000000     0.782600000000     0.000000000000     0          
H250     H      0.597300000000     0.807200000000     0.000000000000     0          
H251     H      0.652500000000     0.751900000000     0.000000000000     0          
O252     O      0.118340000000     0.435800000000     0.000000000000     0          
C253     C      0.128000000000     0.315400000000     0.000000000000     0          
C254     C      0.160800000000     0.282600000000     0.000000000000     0          
H255     H      0.097300000000     0.307200000000     0.000000000000     0          
H256     H      0.152500000000     0.251900000000     0.000000000000     0          
O257     O      0.118340000000     0.935800000000     0.500000000000     0          
C258     C      0.128000000000     0.815400000000     0.500000000000     0          
C259     C      0.160800000000     0.782600000000     0.500000000000     0          
H260     H      0.097300000000     0.807200000000     0.500000000000     0          
H261     H      0.152500000000     0.751900000000     0.500000000000     0          
O262     O      0.500000000000     0.618340000000     0.564200000000     0          
C263     C      0.500000000000     0.628000000000     0.684600000000     0          
C264     C      0.500000000000     0.660800000000     0.717400000000     0          
H265     H      0.500000000000     0.597300000000     0.692800000000     0          
H266     H      0.500000000000     0.652500000000     0.748100000000     0          
O267     O      0.500000000000     0.118340000000     0.064200000000     0          
C268     C      0.500000000000     0.128000000000     0.184600000000     0          
C269     C      0.500000000000     0.160800000000     0.217400000000     0          
H270     H      0.500000000000     0.097300000000     0.192800000000     0          
H271     H      0.500000000000     0.152500000000     0.248100000000     0          
O272     O      0.000000000000     0.618340000000     0.064200000000     0          
C273     C      0.000000000000     0.628000000000     0.184600000000     0          
C274     C      0.000000000000     0.660800000000     0.217400000000     0          
H275     H      0.000000000000     0.597300000000     0.192800000000     0          
H276     H      0.000000000000     0.652500000000     0.248100000000     0          
O277     O      0.000000000000     0.118340000000     0.564200000000     0          
O278     O      0.500000000000     0.381660000000     0.435800000000     0          
C279     C      0.500000000000     0.372000000000     0.315400000000     0          
C280     C      0.500000000000     0.339200000000     0.282600000000     0          
H281     H      0.500000000000     0.402700000000     0.307200000000     0          
H282     H      0.500000000000     0.347500000000     0.251900000000     0          
O283     O      0.500000000000     0.881660000000     0.935800000000     0          
O284     O      0.000000000000     0.381660000000     0.935800000000     0          
O285     O      0.000000000000     0.881660000000     0.435800000000     0          
C286     C      0.000000000000     0.872000000000     0.315400000000     0          
C287     C      0.000000000000     0.839200000000     0.282600000000     0          
H288     H      0.000000000000     0.902700000000     0.307200000000     0          
H289     H      0.000000000000     0.847500000000     0.251900000000     0          
O290     O      0.500000000000     0.381660000000     0.564200000000     0          
C291     C      0.500000000000     0.372000000000     0.684600000000     0          
C292     C      0.500000000000     0.339200000000     0.717400000000     0          
H293     H      0.500000000000     0.402700000000     0.692800000000     0          
H294     H      0.500000000000     0.347500000000     0.748100000000     0          
O295     O      0.500000000000     0.881660000000     0.064200000000     0          
C296     C      0.500000000000     0.872000000000     0.184600000000     0          
C297     C      0.500000000000     0.839200000000     0.217400000000     0          
H298     H      0.500000000000     0.902700000000     0.192800000000     0          
H299     H      0.500000000000     0.847500000000     0.248100000000     0          
O300     O      0.000000000000     0.381660000000     0.064200000000     0          
O301     O      0.000000000000     0.881660000000     0.564200000000     0          
C302     C      0.000000000000     0.872000000000     0.684600000000     0          
C303     C      0.000000000000     0.839200000000     0.717400000000     0          
H304     H      0.000000000000     0.902700000000     0.692800000000     0          
H305     H      0.000000000000     0.847500000000     0.748100000000     0          
O306     O      0.500000000000     0.618340000000     0.435800000000     0          
C307     C      0.500000000000     0.628000000000     0.315400000000     0          
C308     C      0.500000000000     0.660800000000     0.282600000000     0          
H309     H      0.500000000000     0.597300000000     0.307200000000     0          
H310     H      0.500000000000     0.652500000000     0.251900000000     0          
O311     O      0.500000000000     0.118340000000     0.935800000000     0          
C312     C      0.500000000000     0.128000000000     0.815400000000     0          
C313     C      0.500000000000     0.160800000000     0.782600000000     0          
H314     H      0.500000000000     0.097300000000     0.807200000000     0          
H315     H      0.500000000000     0.152500000000     0.751900000000     0          
O316     O      0.000000000000     0.618340000000     0.935800000000     0          
C317     C      0.000000000000     0.628000000000     0.815400000000     0          
C318     C      0.000000000000     0.660800000000     0.782600000000     0          
H319     H      0.000000000000     0.597300000000     0.807200000000     0          
H320     H      0.000000000000     0.652500000000     0.751900000000     0          
O321     O      0.000000000000     0.118340000000     0.435800000000     0          
O322     O      0.564200000000     0.500000000000     0.618340000000     0          
C323     C      0.684600000000     0.500000000000     0.628000000000     0          
C324     C      0.717400000000     0.500000000000     0.660800000000     0          
H325     H      0.692800000000     0.500000000000     0.597300000000     0          
H326     H      0.748100000000     0.500000000000     0.652500000000     0          
O327     O      0.564200000000     0.000000000000     0.118340000000     0          
C328     C      0.684600000000     0.000000000000     0.128000000000     0          
C329     C      0.717400000000     0.000000000000     0.160800000000     0          
H330     H      0.692800000000     0.000000000000     0.097300000000     0          
H331     H      0.748100000000     0.000000000000     0.152500000000     0          
O332     O      0.064200000000     0.500000000000     0.118340000000     0          
C333     C      0.184600000000     0.500000000000     0.128000000000     0          
C334     C      0.217400000000     0.500000000000     0.160800000000     0          
H335     H      0.192800000000     0.500000000000     0.097300000000     0          
H336     H      0.248100000000     0.500000000000     0.152500000000     0          
O337     O      0.064200000000     0.000000000000     0.618340000000     0          
C338     C      0.184600000000     0.000000000000     0.628000000000     0          
C339     C      0.217400000000     0.000000000000     0.660800000000     0          
H340     H      0.192800000000     0.000000000000     0.597300000000     0          
H341     H      0.248100000000     0.000000000000     0.652500000000     0          
O342     O      0.435800000000     0.500000000000     0.381660000000     0          
C343     C      0.315400000000     0.500000000000     0.372000000000     0          
C344     C      0.282600000000     0.500000000000     0.339200000000     0          
H345     H      0.307200000000     0.500000000000     0.402700000000     0          
H346     H      0.251900000000     0.500000000000     0.347500000000     0          
O347     O      0.435800000000     0.000000000000     0.881660000000     0          
C348     C      0.315400000000     0.000000000000     0.872000000000     0          
C349     C      0.282600000000     0.000000000000     0.839200000000     0          
H350     H      0.307200000000     0.000000000000     0.902700000000     0          
H351     H      0.251900000000     0.000000000000     0.847500000000     0          
O352     O      0.935800000000     0.500000000000     0.881660000000     0          
C353     C      0.815400000000     0.500000000000     0.872000000000     0          
C354     C      0.782600000000     0.500000000000     0.839200000000     0          
H355     H      0.807200000000     0.500000000000     0.902700000000     0          
H356     H      0.751900000000     0.500000000000     0.847500000000     0          
O357     O      0.935800000000     0.000000000000     0.381660000000     0          
C358     C      0.815400000000     0.000000000000     0.372000000000     0          
C359     C      0.782600000000     0.000000000000     0.339200000000     0          
H360     H      0.807200000000     0.000000000000     0.402700000000     0          
H361     H      0.751900000000     0.000000000000     0.347500000000     0          
O362     O      0.564200000000     0.500000000000     0.381660000000     0          
C363     C      0.684600000000     0.500000000000     0.372000000000     0          
C364     C      0.717400000000     0.500000000000     0.339200000000     0          
H365     H      0.692800000000     0.500000000000     0.402700000000     0          
H366     H      0.748100000000     0.500000000000     0.347500000000     0          
O367     O      0.564200000000     0.000000000000     0.881660000000     0          
C368     C      0.684600000000     0.000000000000     0.872000000000     0          
C369     C      0.717400000000     0.000000000000     0.839200000000     0          
H370     H      0.692800000000     0.000000000000     0.902700000000     0          
H371     H      0.748100000000     0.000000000000     0.847500000000     0          
O372     O      0.064200000000     0.500000000000     0.881660000000     0          
O373     O      0.064200000000     0.000000000000     0.381660000000     0          
C374     C      0.184600000000     0.000000000000     0.372000000000     0          
C375     C      0.217400000000     0.000000000000     0.339200000000     0          
H376     H      0.192800000000     0.000000000000     0.402700000000     0          
H377     H      0.248100000000     0.000000000000     0.347500000000     0          
O378     O      0.435800000000     0.500000000000     0.618340000000     0          
O379     O      0.435800000000     0.000000000000     0.118340000000     0          
C380     C      0.315400000000     0.000000000000     0.128000000000     0          
C381     C      0.282600000000     0.000000000000     0.160800000000     0          
H382     H      0.307200000000     0.000000000000     0.097300000000     0          
H383     H      0.251900000000     0.000000000000     0.152500000000     0          
O384     O      0.935800000000     0.500000000000     0.118340000000     0          
C385     C      0.815400000000     0.500000000000     0.128000000000     0          
C386     C      0.782600000000     0.500000000000     0.160800000000     0          
H387     H      0.807200000000     0.500000000000     0.097300000000     0          
H388     H      0.751900000000     0.500000000000     0.152500000000     0          
O389     O      0.935800000000     0.000000000000     0.618340000000     0          
C390     C      0.815400000000     0.000000000000     0.628000000000     0          
C391     C      0.782600000000     0.000000000000     0.660800000000     0          
H392     H      0.807200000000     0.000000000000     0.597300000000     0          
H393     H      0.751900000000     0.000000000000     0.652500000000     0          
O394     O      0.564200000000     0.618340000000     0.500000000000     0          
O395     O      0.564200000000     0.118340000000     0.000000000000     0          
C396     C      0.684600000000     0.128000000000     0.000000000000     0          
C397     C      0.717400000000     0.160800000000     0.000000000000     0          
H398     H      0.692800000000     0.097300000000     0.000000000000     0          
H399     H      0.748100000000     0.152500000000     0.000000000000     0          
O400     O      0.064200000000     0.618340000000     0.000000000000     0          
C401     C      0.184600000000     0.628000000000     0.000000000000     0          
C402     C      0.217400000000     0.660800000000     0.000000000000     0          
H403     H      0.192800000000     0.597300000000     0.000000000000     0          
H404     H      0.248100000000     0.652500000000     0.000000000000     0          
O405     O      0.064200000000     0.118340000000     0.500000000000     0          
C406     C      0.184600000000     0.128000000000     0.500000000000     0          
C407     C      0.217400000000     0.160800000000     0.500000000000     0          
H408     H      0.192800000000     0.097300000000     0.500000000000     0          
H409     H      0.248100000000     0.152500000000     0.500000000000     0          
O410     O      0.435800000000     0.381660000000     0.500000000000     0          
C411     C      0.315400000000     0.372000000000     0.500000000000     0          
C412     C      0.282600000000     0.339200000000     0.500000000000     0          
H413     H      0.307200000000     0.402700000000     0.500000000000     0          
H414     H      0.251900000000     0.347500000000     0.500000000000     0          
O415     O      0.435800000000     0.881660000000     0.000000000000     0          
C416     C      0.315400000000     0.872000000000     0.000000000000     0          
C417     C      0.282600000000     0.839200000000     0.000000000000     0          
H418     H      0.307200000000     0.902700000000     0.000000000000     0          
H419     H      0.251900000000     0.847500000000     0.000000000000     0          
O420     O      0.935800000000     0.381660000000     0.000000000000     0          
C421     C      0.815400000000     0.372000000000     0.000000000000     0          
C422     C      0.782600000000     0.339200000000     0.000000000000     0          
H423     H      0.807200000000     0.402700000000     0.000000000000     0          
H424     H      0.751900000000     0.347500000000     0.000000000000     0          
O425     O      0.935800000000     0.881660000000     0.500000000000     0          
C426     C      0.815400000000     0.872000000000     0.500000000000     0          
C427     C      0.782600000000     0.839200000000     0.500000000000     0          
H428     H      0.807200000000     0.902700000000     0.500000000000     0          
H429     H      0.751900000000     0.847500000000     0.500000000000     0          
O430     O      0.564200000000     0.381660000000     0.500000000000     0          
C431     C      0.684600000000     0.372000000000     0.500000000000     0          
C432     C      0.717400000000     0.339200000000     0.500000000000     0          
H433     H      0.692800000000     0.402700000000     0.500000000000     0          
H434     H      0.748100000000     0.347500000000     0.500000000000     0          
O435     O      0.564200000000     0.881660000000     0.000000000000     0          
C436     C      0.684600000000     0.872000000000     0.000000000000     0          
C437     C      0.717400000000     0.839200000000     0.000000000000     0          
H438     H      0.692800000000     0.902700000000     0.000000000000     0          
H439     H      0.748100000000     0.847500000000     0.000000000000     0          
O440     O      0.064200000000     0.381660000000     0.000000000000     0          
C441     C      0.184600000000     0.372000000000     0.000000000000     0          
C442     C      0.217400000000     0.339200000000     0.000000000000     0          
H443     H      0.192800000000     0.402700000000     0.000000000000     0          
H444     H      0.248100000000     0.347500000000     0.000000000000     0          
O445     O      0.064200000000     0.881660000000     0.500000000000     0          
C446     C      0.184600000000     0.872000000000     0.500000000000     0          
C447     C      0.217400000000     0.839200000000     0.500000000000     0          
H448     H      0.192800000000     0.902700000000     0.500000000000     0          
H449     H      0.248100000000     0.847500000000     0.500000000000     0          
O450     O      0.435800000000     0.618340000000     0.500000000000     0          
C451     C      0.315400000000     0.628000000000     0.500000000000     0          
C452     C      0.282600000000     0.660800000000     0.500000000000     0          
H453     H      0.307200000000     0.597300000000     0.500000000000     0          
H454     H      0.251900000000     0.652500000000     0.500000000000     0          
O455     O      0.435800000000     0.118340000000     0.000000000000     0          
C456     C      0.315400000000     0.128000000000     0.000000000000     0          
C457     C      0.282600000000     0.160800000000     0.000000000000     0          
H458     H      0.307200000000     0.097300000000     0.000000000000     0          
H459     H      0.251900000000     0.152500000000     0.000000000000     0          
O460     O      0.935800000000     0.618340000000     0.000000000000     0          
C461     C      0.815400000000     0.628000000000     0.000000000000     0          
C462     C      0.782600000000     0.660800000000     0.000000000000     0          
H463     H      0.807200000000     0.597300000000     0.000000000000     0          
H464     H      0.751900000000     0.652500000000     0.000000000000     0          
O465     O      0.935800000000     0.118340000000     0.500000000000     0          
C466     C      0.815400000000     0.128000000000     0.500000000000     0          
C467     C      0.782600000000     0.160800000000     0.500000000000     0          
H468     H      0.807200000000     0.097300000000     0.500000000000     0          
H469     H      0.751900000000     0.152500000000     0.500000000000     0          
O470     O      0.618340000000     0.500000000000     0.435800000000     0          
C471     C      0.628000000000     0.500000000000     0.315400000000     0          
C472     C      0.660800000000     0.500000000000     0.282600000000     0          
H473     H      0.597300000000     0.500000000000     0.307200000000     0          
H474     H      0.652500000000     0.500000000000     0.251900000000     0          
O475     O      0.618340000000     0.000000000000     0.935800000000     0          
C476     C      0.628000000000     0.000000000000     0.815400000000     0          
C477     C      0.660800000000     0.000000000000     0.782600000000     0          
H478     H      0.597300000000     0.000000000000     0.807200000000     0          
H479     H      0.652500000000     0.000000000000     0.751900000000     0          
O480     O      0.118340000000     0.500000000000     0.935800000000     0          
O481     O      0.118340000000     0.000000000000     0.435800000000     0          
C482     C      0.128000000000     0.000000000000     0.315400000000     0          
C483     C      0.160800000000     0.000000000000     0.282600000000     0          
H484     H      0.097300000000     0.000000000000     0.307200000000     0          
H485     H      0.152500000000     0.000000000000     0.251900000000     0          
O486     O      0.381660000000     0.500000000000     0.564200000000     0          
O487     O      0.381660000000     0.000000000000     0.064200000000     0          
C488     C      0.372000000000     0.000000000000     0.184600000000     0          
C489     C      0.339200000000     0.000000000000     0.217400000000     0          
H490     H      0.402700000000     0.000000000000     0.192800000000     0          
H491     H      0.347500000000     0.000000000000     0.248100000000     0          
O492     O      0.881660000000     0.500000000000     0.064200000000     0          
C493     C      0.872000000000     0.500000000000     0.184600000000     0          
C494     C      0.839200000000     0.500000000000     0.217400000000     0          
H495     H      0.902700000000     0.500000000000     0.192800000000     0          
H496     H      0.847500000000     0.500000000000     0.248100000000     0          
O497     O      0.881660000000     0.000000000000     0.564200000000     0          
C498     C      0.872000000000     0.000000000000     0.684600000000     0          
C499     C      0.839200000000     0.000000000000     0.717400000000     0          
H500     H      0.902700000000     0.000000000000     0.692800000000     0          
H501     H      0.847500000000     0.000000000000     0.748100000000     0          
O502     O      0.381660000000     0.500000000000     0.435800000000     0          
C503     C      0.372000000000     0.500000000000     0.315400000000     0          
C504     C      0.339200000000     0.500000000000     0.282600000000     0          
H505     H      0.402700000000     0.500000000000     0.307200000000     0          
H506     H      0.347500000000     0.500000000000     0.251900000000     0          
O507     O      0.381660000000     0.000000000000     0.935800000000     0          
C508     C      0.372000000000     0.000000000000     0.815400000000     0          
C509     C      0.339200000000     0.000000000000     0.782600000000     0          
H510     H      0.402700000000     0.000000000000     0.807200000000     0          
H511     H      0.347500000000     0.000000000000     0.751900000000     0          
O512     O      0.881660000000     0.500000000000     0.935800000000     0          
C513     C      0.872000000000     0.500000000000     0.815400000000     0          
C514     C      0.839200000000     0.500000000000     0.782600000000     0          
H515     H      0.902700000000     0.500000000000     0.807200000000     0          
H516     H      0.847500000000     0.500000000000     0.751900000000     0          
O517     O      0.881660000000     0.000000000000     0.435800000000     0          
C518     C      0.872000000000     0.000000000000     0.315400000000     0          
C519     C      0.839200000000     0.000000000000     0.282600000000     0          
H520     H      0.902700000000     0.000000000000     0.307200000000     0          
H521     H      0.847500000000     0.000000000000     0.251900000000     0          
O522     O      0.618340000000     0.500000000000     0.564200000000     0          
C523     C      0.628000000000     0.500000000000     0.684600000000     0          
C524     C      0.660800000000     0.500000000000     0.717400000000     0          
H525     H      0.597300000000     0.500000000000     0.692800000000     0          
H526     H      0.652500000000     0.500000000000     0.748100000000     0          
O527     O      0.618340000000     0.000000000000     0.064200000000     0          
C528     C      0.628000000000     0.000000000000     0.184600000000     0          
C529     C      0.660800000000     0.000000000000     0.217400000000     0          
H530     H      0.597300000000     0.000000000000     0.192800000000     0          
H531     H      0.652500000000     0.000000000000     0.248100000000     0          
O532     O      0.118340000000     0.500000000000     0.064200000000     0          
C533     C      0.128000000000     0.500000000000     0.184600000000     0          
C534     C      0.160800000000     0.500000000000     0.217400000000     0          
H535     H      0.097300000000     0.500000000000     0.192800000000     0          
H536     H      0.152500000000     0.500000000000     0.248100000000     0          
O537     O      0.118340000000     0.000000000000     0.564200000000     0          
C538     C      0.128000000000     0.000000000000     0.684600000000     0          
C539     C      0.160800000000     0.000000000000     0.717400000000     0          
H540     H      0.097300000000     0.000000000000     0.692800000000     0          
H541     H      0.152500000000     0.000000000000     0.748100000000     0          
O542     O      0.500000000000     0.564200000000     0.381660000000     0          
C543     C      0.500000000000     0.684600000000     0.372000000000     0          
C544     C      0.500000000000     0.717400000000     0.339200000000     0          
H545     H      0.500000000000     0.692800000000     0.402700000000     0          
H546     H      0.500000000000     0.748100000000     0.347500000000     0          
O547     O      0.500000000000     0.064200000000     0.881660000000     0          
C548     C      0.500000000000     0.184600000000     0.872000000000     0          
C549     C      0.500000000000     0.217400000000     0.839200000000     0          
H550     H      0.500000000000     0.192800000000     0.902700000000     0          
H551     H      0.500000000000     0.248100000000     0.847500000000     0          
O552     O      0.000000000000     0.564200000000     0.881660000000     0          
C553     C      0.000000000000     0.684600000000     0.872000000000     0          
C554     C      0.000000000000     0.717400000000     0.839200000000     0          
H555     H      0.000000000000     0.692800000000     0.902700000000     0          
H556     H      0.000000000000     0.748100000000     0.847500000000     0          
O557     O      0.000000000000     0.064200000000     0.381660000000     0          
O558     O      0.500000000000     0.435800000000     0.618340000000     0          
C559     C      0.500000000000     0.315400000000     0.628000000000     0          
C560     C      0.500000000000     0.282600000000     0.660800000000     0          
H561     H      0.500000000000     0.307200000000     0.597300000000     0          
H562     H      0.500000000000     0.251900000000     0.652500000000     0          
O563     O      0.500000000000     0.935800000000     0.118340000000     0          
C564     C      0.500000000000     0.815400000000     0.128000000000     0          
C565     C      0.500000000000     0.782600000000     0.160800000000     0          
H566     H      0.500000000000     0.807200000000     0.097300000000     0          
H567     H      0.500000000000     0.751900000000     0.152500000000     0          
O568     O      0.000000000000     0.435800000000     0.118340000000     0          
O569     O      0.000000000000     0.935800000000     0.618340000000     0          
C570     C      0.000000000000     0.815400000000     0.628000000000     0          
C571     C      0.000000000000     0.782600000000     0.660800000000     0          
H572     H      0.000000000000     0.807200000000     0.597300000000     0          
H573     H      0.000000000000     0.751900000000     0.652500000000     0          
O574     O      0.500000000000     0.564200000000     0.618340000000     0          
C575     C      0.500000000000     0.684600000000     0.628000000000     0          
C576     C      0.500000000000     0.717400000000     0.660800000000     0          
H577     H      0.500000000000     0.692800000000     0.597300000000     0          
H578     H      0.500000000000     0.748100000000     0.652500000000     0          
O579     O      0.500000000000     0.064200000000     0.118340000000     0          
C580     C      0.500000000000     0.184600000000     0.128000000000     0          
C581     C      0.500000000000     0.217400000000     0.160800000000     0          
H582     H      0.500000000000     0.192800000000     0.097300000000     0          
H583     H      0.500000000000     0.248100000000     0.152500000000     0          
O584     O      0.000000000000     0.564200000000     0.118340000000     0          
C585     C      0.000000000000     0.684600000000     0.128000000000     0          
C586     C      0.000000000000     0.717400000000     0.160800000000     0          
H587     H      0.000000000000     0.692800000000     0.097300000000     0          
H588     H      0.000000000000     0.748100000000     0.152500000000     0          
O589     O      0.000000000000     0.064200000000     0.618340000000     0          
O590     O      0.500000000000     0.435800000000     0.381660000000     0          
C591     C      0.500000000000     0.315400000000     0.372000000000     0          
C592     C      0.500000000000     0.282600000000     0.339200000000     0          
H593     H      0.500000000000     0.307200000000     0.402700000000     0          
H594     H      0.500000000000     0.251900000000     0.347500000000     0          
O595     O      0.500000000000     0.935800000000     0.881660000000     0          
O596     O      0.000000000000     0.435800000000     0.881660000000     0          
O597     O      0.000000000000     0.935800000000     0.381660000000     0          
C598     C      0.000000000000     0.815400000000     0.372000000000     0          
C599     C      0.000000000000     0.782600000000     0.339200000000     0          
H600     H      0.000000000000     0.807200000000     0.402700000000     0          
H601     H      0.000000000000     0.751900000000     0.347500000000     0          
C602     C      0.605100000000     0.605100000000     0.500000000000     0          
C603     C      0.639900000000     0.639900000000     0.500000000000     0          
C604     C      0.705700000000     0.705700000000     0.500000000000     0          
C605     C      0.605100000000     0.105100000000     0.000000000000     0          
C606     C      0.639900000000     0.139900000000     0.000000000000     0          
C607     C      0.705700000000     0.205700000000     0.000000000000     0          
C608     C      0.105100000000     0.605100000000     0.000000000000     0          
C609     C      0.139900000000     0.639900000000     0.000000000000     0          
C610     C      0.205700000000     0.705700000000     0.000000000000     0          
C611     C      0.105100000000     0.105100000000     0.500000000000     0          
C612     C      0.139900000000     0.139900000000     0.500000000000     0          
C613     C      0.205700000000     0.205700000000     0.500000000000     0          
C614     C      0.394900000000     0.394900000000     0.500000000000     0          
C615     C      0.360100000000     0.360100000000     0.500000000000     0          
C616     C      0.294300000000     0.294300000000     0.500000000000     0          
C617     C      0.394900000000     0.894900000000     0.000000000000     0          
C618     C      0.360100000000     0.860100000000     0.000000000000     0          
C619     C      0.294300000000     0.794300000000     0.000000000000     0          
C620     C      0.894900000000     0.394900000000     0.000000000000     0          
C621     C      0.860100000000     0.360100000000     0.000000000000     0          
C622     C      0.794300000000     0.294300000000     0.000000000000     0          
C623     C      0.894900000000     0.894900000000     0.500000000000     0          
C624     C      0.860100000000     0.860100000000     0.500000000000     0          
C625     C      0.794300000000     0.794300000000     0.500000000000     0          
C626     C      0.394900000000     0.605100000000     0.500000000000     0          
C627     C      0.360100000000     0.639900000000     0.500000000000     0          
C628     C      0.294300000000     0.705700000000     0.500000000000     0          
C629     C      0.394900000000     0.105100000000     0.000000000000     0          
C630     C      0.360100000000     0.139900000000     0.000000000000     0          
C631     C      0.294300000000     0.205700000000     0.000000000000     0          
C632     C      0.894900000000     0.605100000000     0.000000000000     0          
C633     C      0.860100000000     0.639900000000     0.000000000000     0          
C634     C      0.794300000000     0.705700000000     0.000000000000     0          
C635     C      0.894900000000     0.105100000000     0.500000000000     0          
C636     C      0.860100000000     0.139900000000     0.500000000000     0          
C637     C      0.794300000000     0.205700000000     0.500000000000     0          
C638     C      0.605100000000     0.394900000000     0.500000000000     0          
C639     C      0.639900000000     0.360100000000     0.500000000000     0          
C640     C      0.705700000000     0.294300000000     0.500000000000     0          
C641     C      0.605100000000     0.894900000000     0.000000000000     0          
C642     C      0.639900000000     0.860100000000     0.000000000000     0          
C643     C      0.705700000000     0.794300000000     0.000000000000     0          
C644     C      0.105100000000     0.394900000000     0.000000000000     0          
C645     C      0.139900000000     0.360100000000     0.000000000000     0          
C646     C      0.205700000000     0.294300000000     0.000000000000     0          
C647     C      0.105100000000     0.894900000000     0.500000000000     0          
C648     C      0.139900000000     0.860100000000     0.500000000000     0          
C649     C      0.205700000000     0.794300000000     0.500000000000     0          
C650     C      0.500000000000     0.605100000000     0.605100000000     0          
C651     C      0.500000000000     0.639900000000     0.639900000000     0          
C652     C      0.500000000000     0.705700000000     0.705700000000     0          
C653     C      0.500000000000     0.105100000000     0.105100000000     0          
C654     C      0.500000000000     0.139900000000     0.139900000000     0          
C655     C      0.500000000000     0.205700000000     0.205700000000     0          
C656     C      0.000000000000     0.605100000000     0.105100000000     0          
C657     C      0.000000000000     0.639900000000     0.139900000000     0          
C658     C      0.000000000000     0.705700000000     0.205700000000     0          
C659     C      0.000000000000     0.105100000000     0.605100000000     0          
C660     C      0.000000000000     0.139900000000     0.639900000000     0          
C661     C      0.000000000000     0.205700000000     0.705700000000     0          
C662     C      0.500000000000     0.394900000000     0.394900000000     0          
C663     C      0.500000000000     0.360100000000     0.360100000000     0          
C664     C      0.500000000000     0.294300000000     0.294300000000     0          
C665     C      0.500000000000     0.894900000000     0.894900000000     0          
C666     C      0.500000000000     0.860100000000     0.860100000000     0          
C667     C      0.500000000000     0.794300000000     0.794300000000     0          
C668     C      0.000000000000     0.394900000000     0.894900000000     0          
C669     C      0.000000000000     0.360100000000     0.860100000000     0          
C670     C      0.000000000000     0.294300000000     0.794300000000     0          
C671     C      0.000000000000     0.894900000000     0.394900000000     0          
C672     C      0.000000000000     0.860100000000     0.360100000000     0          
C673     C      0.000000000000     0.794300000000     0.294300000000     0          
C674     C      0.500000000000     0.394900000000     0.605100000000     0          
C675     C      0.500000000000     0.360100000000     0.639900000000     0          
C676     C      0.500000000000     0.294300000000     0.705700000000     0          
C677     C      0.500000000000     0.894900000000     0.105100000000     0          
C678     C      0.500000000000     0.860100000000     0.139900000000     0          
C679     C      0.500000000000     0.794300000000     0.205700000000     0          
C680     C      0.000000000000     0.394900000000     0.105100000000     0          
C681     C      0.000000000000     0.360100000000     0.139900000000     0          
C682     C      0.000000000000     0.294300000000     0.205700000000     0          
C683     C      0.000000000000     0.894900000000     0.605100000000     0          
C684     C      0.000000000000     0.860100000000     0.639900000000     0          
C685     C      0.000000000000     0.794300000000     0.705700000000     0          
C686     C      0.500000000000     0.605100000000     0.394900000000     0          
C687     C      0.500000000000     0.639900000000     0.360100000000     0          
C688     C      0.500000000000     0.705700000000     0.294300000000     0          
C689     C      0.500000000000     0.105100000000     0.894900000000     0          
C690     C      0.500000000000     0.139900000000     0.860100000000     0          
C691     C      0.500000000000     0.205700000000     0.794300000000     0          
C692     C      0.000000000000     0.605100000000     0.894900000000     0          
C693     C      0.000000000000     0.639900000000     0.860100000000     0          
C694     C      0.000000000000     0.705700000000     0.794300000000     0          
C695     C      0.000000000000     0.105100000000     0.394900000000     0          
C696     C      0.000000000000     0.139900000000     0.360100000000     0          
C697     C      0.000000000000     0.205700000000     0.294300000000     0          
C698     C      0.605100000000     0.500000000000     0.605100000000     0          
C699     C      0.639900000000     0.500000000000     0.639900000000     0          
C700     C      0.705700000000     0.500000000000     0.705700000000     0          
C701     C      0.605100000000     0.000000000000     0.105100000000     0          
C702     C      0.639900000000     0.000000000000     0.139900000000     0          
C703     C      0.705700000000     0.000000000000     0.205700000000     0          
C704     C      0.105100000000     0.500000000000     0.105100000000     0          
C705     C      0.139900000000     0.500000000000     0.139900000000     0          
C706     C      0.205700000000     0.500000000000     0.205700000000     0          
C707     C      0.105100000000     0.000000000000     0.605100000000     0          
C708     C      0.139900000000     0.000000000000     0.639900000000     0          
C709     C      0.205700000000     0.000000000000     0.705700000000     0          
C710     C      0.394900000000     0.500000000000     0.394900000000     0          
C711     C      0.360100000000     0.500000000000     0.360100000000     0          
C712     C      0.294300000000     0.500000000000     0.294300000000     0          
C713     C      0.394900000000     0.000000000000     0.894900000000     0          
C714     C      0.360100000000     0.000000000000     0.860100000000     0          
C715     C      0.294300000000     0.000000000000     0.794300000000     0          
C716     C      0.894900000000     0.500000000000     0.894900000000     0          
C717     C      0.860100000000     0.500000000000     0.860100000000     0          
C718     C      0.794300000000     0.500000000000     0.794300000000     0          
C719     C      0.894900000000     0.000000000000     0.394900000000     0          
C720     C      0.860100000000     0.000000000000     0.360100000000     0          
C721     C      0.794300000000     0.000000000000     0.294300000000     0          
C722     C      0.605100000000     0.500000000000     0.394900000000     0          
C723     C      0.639900000000     0.500000000000     0.360100000000     0          
C724     C      0.705700000000     0.500000000000     0.294300000000     0          
C725     C      0.605100000000     0.000000000000     0.894900000000     0          
C726     C      0.639900000000     0.000000000000     0.860100000000     0          
C727     C      0.705700000000     0.000000000000     0.794300000000     0          
C728     C      0.105100000000     0.500000000000     0.894900000000     0          
C729     C      0.139900000000     0.500000000000     0.860100000000     0          
C730     C      0.205700000000     0.500000000000     0.794300000000     0          
C731     C      0.105100000000     0.000000000000     0.394900000000     0          
C732     C      0.139900000000     0.000000000000     0.360100000000     0          
C733     C      0.205700000000     0.000000000000     0.294300000000     0          
C734     C      0.394900000000     0.500000000000     0.605100000000     0          
C735     C      0.360100000000     0.500000000000     0.639900000000     0          
C736     C      0.294300000000     0.500000000000     0.705700000000     0          
C737     C      0.394900000000     0.000000000000     0.105100000000     0          
C738     C      0.360100000000     0.000000000000     0.139900000000     0          
C739     C      0.294300000000     0.000000000000     0.205700000000     0          
C740     C      0.894900000000     0.500000000000     0.105100000000     0          
C741     C      0.860100000000     0.500000000000     0.139900000000     0          
C742     C      0.794300000000     0.500000000000     0.205700000000     0          
C743     C      0.894900000000     0.000000000000     0.605100000000     0          
C744     C      0.860100000000     0.000000000000     0.639900000000     0          
C745     C      0.794300000000     0.000000000000     0.705700000000     0          
O746     O      0.545800000000     0.454200000000     0.454200000000     0          
O747     O      0.534100000000     0.465900000000     0.465900000000     0          
O748     O      0.545800000000     0.954200000000     0.954200000000     0          
O749     O      0.534100000000     0.965900000000     0.965900000000     0          
O750     O      0.045800000000     0.454200000000     0.954200000000     0          
O751     O      0.034100000000     0.465900000000     0.965900000000     0          
O752     O      0.045800000000     0.954200000000     0.454200000000     0          
O753     O      0.034100000000     0.965900000000     0.465900000000     0          
O754     O      0.454200000000     0.545800000000     0.454200000000     0          
O755     O      0.465900000000     0.534100000000     0.465900000000     0          
O756     O      0.454200000000     0.045800000000     0.954200000000     0          
O757     O      0.465900000000     0.034100000000     0.965900000000     0          
O758     O      0.954200000000     0.545800000000     0.954200000000     0          
O759     O      0.965900000000     0.534100000000     0.965900000000     0          
O760     O      0.954200000000     0.045800000000     0.454200000000     0          
O761     O      0.965900000000     0.034100000000     0.465900000000     0          
O762     O      0.454200000000     0.454200000000     0.545800000000     0          
O763     O      0.465900000000     0.465900000000     0.534100000000     0          
O764     O      0.454200000000     0.954200000000     0.045800000000     0          
O765     O      0.465900000000     0.965900000000     0.034100000000     0          
O766     O      0.954200000000     0.454200000000     0.045800000000     0          
O767     O      0.965900000000     0.465900000000     0.034100000000     0          
O768     O      0.954200000000     0.954200000000     0.545800000000     0          
O769     O      0.965900000000     0.965900000000     0.534100000000     0          
O770     O      0.545800000000     0.545800000000     0.545800000000     0          
O771     O      0.534100000000     0.534100000000     0.534100000000     0          
O772     O      0.545800000000     0.045800000000     0.045800000000     0          
O773     O      0.534100000000     0.034100000000     0.034100000000     0          
O774     O      0.045800000000     0.545800000000     0.045800000000     0          
O775     O      0.034100000000     0.534100000000     0.034100000000     0          
O776     O      0.045800000000     0.045800000000     0.545800000000     0          
O777     O      0.034100000000     0.034100000000     0.534100000000     0          
O778     O      0.454200000000     0.545800000000     0.545800000000     0          
O779     O      0.465900000000     0.534100000000     0.534100000000     0          
O780     O      0.454200000000     0.045800000000     0.045800000000     0          
O781     O      0.465900000000     0.034100000000     0.034100000000     0          
O782     O      0.954200000000     0.545800000000     0.045800000000     0          
O783     O      0.965900000000     0.534100000000     0.034100000000     0          
O784     O      0.954200000000     0.045800000000     0.545800000000     0          
O785     O      0.965900000000     0.034100000000     0.534100000000     0          
O786     O      0.545800000000     0.454200000000     0.545800000000     0          
O787     O      0.534100000000     0.465900000000     0.534100000000     0          
O788     O      0.545800000000     0.954200000000     0.045800000000     0          
O789     O      0.534100000000     0.965900000000     0.034100000000     0          
O790     O      0.045800000000     0.454200000000     0.045800000000     0          
O791     O      0.034100000000     0.465900000000     0.034100000000     0          
O792     O      0.045800000000     0.954200000000     0.545800000000     0          
O793     O      0.034100000000     0.965900000000     0.534100000000     0          
O794     O      0.454200000000     0.454200000000     0.454200000000     0          
O795     O      0.465900000000     0.465900000000     0.465900000000     0          
O796     O      0.454200000000     0.954200000000     0.954200000000     0          
O797     O      0.465900000000     0.965900000000     0.965900000000     0          
O798     O      0.954200000000     0.454200000000     0.954200000000     0          
O799     O      0.965900000000     0.465900000000     0.965900000000     0          
O800     O      0.954200000000     0.954200000000     0.454200000000     0          
O801     O      0.965900000000     0.965900000000     0.465900000000     0          
O802     O      0.545800000000     0.545800000000     0.454200000000     0          
O803     O      0.534100000000     0.534100000000     0.465900000000     0          
O804     O      0.545800000000     0.045800000000     0.954200000000     0          
O805     O      0.534100000000     0.034100000000     0.965900000000     0          
O806     O      0.045800000000     0.545800000000     0.954200000000     0          
O807     O      0.034100000000     0.534100000000     0.965900000000     0          
O808     O      0.045800000000     0.045800000000     0.454200000000     0          
O809     O      0.034100000000     0.034100000000     0.465900000000     0          


