data_ERANOC

_audit_creation_method RASPA-1.0
_audit_creation_date 2020-12-11
_audit_author_name 'Rocio Bueno-Perez'

_cell_length_a    33.505
_cell_length_b    33.505
_cell_length_c    16.824
_cell_angle_alpha 90
_cell_angle_beta  90
_cell_angle_gamma 90
_cell_volume      18886.4

_symmetry_cell_setting          triclinic
_symmetry_space_group_name_Hall 'P 1'
_symmetry_space_group_name_H-M  'P 1'
_symmetry_Int_Tables_number     1

_symmetry_equiv_pos_as_xyz 'x,y,z'

loop_
_atom_site_label
_atom_site_type_symbol
_atom_site_fract_x
_atom_site_fract_y
_atom_site_fract_z
_atom_site_charge
O1       O      0.717590000000     0.767900000000     0.103500000000     0          
O2       O      0.698700000000     0.849500000000     0.077800000000     0          
O3       O      0.757800000000     0.838800000000     0.147500000000     0          
O4       O      0.706900000000     0.141600000000     0.420300000000     0          
O5       O      0.766700000000     0.151600000000     0.349800000000     0          
C6       C      0.725600000000     0.858500000000     0.129500000000     0          
C7       C      0.724350000000     0.899540000000     0.164200000000     0          
C8       C      0.751410000000     0.910500000000     0.222900000000     0          
H9       H      0.770700000000     0.891900000000     0.241100000000     0          
C10      C      0.750120000000     0.948740000000     0.255000000000     0          
H11      H      0.768600000000     0.956300000000     0.295100000000     0          
C12      C      0.721790000000     0.975920000000     0.228200000000     0          
C13      C      0.694800000000     0.964900000000     0.169500000000     0          
C14      C      0.696000000000     0.926690000000     0.137500000000     0          
H15      H      0.677500000000     0.919200000000     0.097300000000     0          
C16      C      0.666000000000     0.995300000000     0.136400000000     0          
H17      H      0.669600000000     0.020700000000     0.164200000000     0          
H18      H      0.638600000000     0.985800000000     0.144000000000     0          
H19      H      0.671200000000     0.999000000000     0.079600000000     0          
C20      C      0.734800000000     0.132600000000     0.368400000000     0          
C21      C      0.729870000000     0.092600000000     0.328700000000     0          
C22      C      0.755520000000     0.080190000000     0.268700000000     0          
H23      H      0.775200000000     0.097900000000     0.248600000000     0          
C24      C      0.752300000000     0.041810000000     0.237900000000     0          
H25      H      0.769900000000     0.033300000000     0.196800000000     0          
C26      C      0.723500000000     0.015860000000     0.267200000000     0          
C27      C      0.697900000000     0.028270000000     0.327300000000     0          
C28      C      0.701050000000     0.066650000000     0.358000000000     0          
H29      H      0.683500000000     0.075100000000     0.399100000000     0          
C30      C      0.666500000000     0.000300000000     0.359500000000     0          
H31      H      0.668400000000     0.974500000000     0.332300000000     0          
H32      H      0.639900000000     0.011800000000     0.350600000000     0          
H33      H      0.670700000000     0.996500000000     0.416600000000     0          
H34      H      0.590100000000     0.462800000000     0.046600000000     0          
O35      O      0.282410000000     0.232100000000     0.103500000000     0          
O36      O      0.301300000000     0.150500000000     0.077800000000     0          
O37      O      0.242200000000     0.161200000000     0.147500000000     0          
O38      O      0.293100000000     0.858400000000     0.420300000000     0          
O39      O      0.233300000000     0.848400000000     0.349800000000     0          
C40      C      0.274400000000     0.141500000000     0.129500000000     0          
C41      C      0.275650000000     0.100460000000     0.164200000000     0          
C42      C      0.248590000000     0.089500000000     0.222900000000     0          
H43      H      0.229300000000     0.108100000000     0.241100000000     0          
C44      C      0.249880000000     0.051260000000     0.255000000000     0          
H45      H      0.231400000000     0.043700000000     0.295100000000     0          
C46      C      0.278210000000     0.024080000000     0.228200000000     0          
C47      C      0.305200000000     0.035100000000     0.169500000000     0          
C48      C      0.304000000000     0.073310000000     0.137500000000     0          
H49      H      0.322500000000     0.080800000000     0.097300000000     0          
C50      C      0.334000000000     0.004700000000     0.136400000000     0          
H51      H      0.330400000000     0.979300000000     0.164200000000     0          
H52      H      0.361400000000     0.014200000000     0.144000000000     0          
H53      H      0.328800000000     0.001000000000     0.079600000000     0          
C54      C      0.265200000000     0.867400000000     0.368400000000     0          
C55      C      0.270130000000     0.907400000000     0.328700000000     0          
C56      C      0.244480000000     0.919810000000     0.268700000000     0          
H57      H      0.224800000000     0.902100000000     0.248600000000     0          
C58      C      0.247700000000     0.958190000000     0.237900000000     0          
H59      H      0.230100000000     0.966700000000     0.196800000000     0          
C60      C      0.276500000000     0.984140000000     0.267200000000     0          
C61      C      0.302100000000     0.971730000000     0.327300000000     0          
C62      C      0.298950000000     0.933350000000     0.358000000000     0          
H63      H      0.316500000000     0.924900000000     0.399100000000     0          
C64      C      0.333500000000     0.999700000000     0.359500000000     0          
H65      H      0.331600000000     0.025500000000     0.332300000000     0          
H66      H      0.360100000000     0.988200000000     0.350600000000     0          
H67      H      0.329300000000     0.003500000000     0.416600000000     0          
H68      H      0.409900000000     0.537200000000     0.046600000000     0          
O69      O      0.732100000000     0.217590000000     0.603500000000     0          
O70      O      0.650500000000     0.198700000000     0.577800000000     0          
O71      O      0.661200000000     0.257800000000     0.647500000000     0          
O72      O      0.358400000000     0.206900000000     0.920300000000     0          
O73      O      0.348400000000     0.266700000000     0.849800000000     0          
C74      C      0.641500000000     0.225600000000     0.629500000000     0          
C75      C      0.600460000000     0.224350000000     0.664200000000     0          
C76      C      0.589500000000     0.251410000000     0.722900000000     0          
H77      H      0.608100000000     0.270700000000     0.741100000000     0          
C78      C      0.551260000000     0.250120000000     0.755000000000     0          
H79      H      0.543700000000     0.268600000000     0.795100000000     0          
C80      C      0.524080000000     0.221790000000     0.728200000000     0          
C81      C      0.535100000000     0.194800000000     0.669500000000     0          
C82      C      0.573310000000     0.196000000000     0.637500000000     0          
H83      H      0.580800000000     0.177500000000     0.597300000000     0          
C84      C      0.504700000000     0.166000000000     0.636400000000     0          
H85      H      0.479300000000     0.169600000000     0.664200000000     0          
H86      H      0.514200000000     0.138600000000     0.644000000000     0          
H87      H      0.501000000000     0.171200000000     0.579600000000     0          
C88      C      0.367400000000     0.234800000000     0.868400000000     0          
C89      C      0.407400000000     0.229870000000     0.828700000000     0          
C90      C      0.419810000000     0.255520000000     0.768700000000     0          
H91      H      0.402100000000     0.275200000000     0.748600000000     0          
C92      C      0.458190000000     0.252300000000     0.737900000000     0          
H93      H      0.466700000000     0.269900000000     0.696800000000     0          
C94      C      0.484140000000     0.223500000000     0.767200000000     0          
C95      C      0.471730000000     0.197900000000     0.827300000000     0          
C96      C      0.433350000000     0.201050000000     0.858000000000     0          
H97      H      0.424900000000     0.183500000000     0.899100000000     0          
C98      C      0.499700000000     0.166500000000     0.859500000000     0          
H99      H      0.525500000000     0.168400000000     0.832300000000     0          
H100     H      0.488200000000     0.139900000000     0.850600000000     0          
H101     H      0.503500000000     0.170700000000     0.916600000000     0          
H102     H      0.037200000000     0.090100000000     0.546600000000     0          
O103     O      0.267900000000     0.782410000000     0.603500000000     0          
O104     O      0.349500000000     0.801300000000     0.577800000000     0          
O105     O      0.338800000000     0.742200000000     0.647500000000     0          
O106     O      0.641600000000     0.793100000000     0.920300000000     0          
O107     O      0.651600000000     0.733300000000     0.849800000000     0          
C108     C      0.358500000000     0.774400000000     0.629500000000     0          
C109     C      0.399540000000     0.775650000000     0.664200000000     0          
C110     C      0.410500000000     0.748590000000     0.722900000000     0          
H111     H      0.391900000000     0.729300000000     0.741100000000     0          
C112     C      0.448740000000     0.749880000000     0.755000000000     0          
H113     H      0.456300000000     0.731400000000     0.795100000000     0          
C114     C      0.475920000000     0.778210000000     0.728200000000     0          
C115     C      0.464900000000     0.805200000000     0.669500000000     0          
C116     C      0.426690000000     0.804000000000     0.637500000000     0          
H117     H      0.419200000000     0.822500000000     0.597300000000     0          
C118     C      0.495300000000     0.834000000000     0.636400000000     0          
H119     H      0.520700000000     0.830400000000     0.664200000000     0          
H120     H      0.485800000000     0.861400000000     0.644000000000     0          
H121     H      0.499000000000     0.828800000000     0.579600000000     0          
C122     C      0.632600000000     0.765200000000     0.868400000000     0          
C123     C      0.592600000000     0.770130000000     0.828700000000     0          
C124     C      0.580190000000     0.744480000000     0.768700000000     0          
H125     H      0.597900000000     0.724800000000     0.748600000000     0          
C126     C      0.541810000000     0.747700000000     0.737900000000     0          
H127     H      0.533300000000     0.730100000000     0.696800000000     0          
C128     C      0.515860000000     0.776500000000     0.767200000000     0          
C129     C      0.528270000000     0.802100000000     0.827300000000     0          
C130     C      0.566650000000     0.798950000000     0.858000000000     0          
H131     H      0.575100000000     0.816500000000     0.899100000000     0          
C132     C      0.500300000000     0.833500000000     0.859500000000     0          
H133     H      0.474500000000     0.831600000000     0.832300000000     0          
H134     H      0.511800000000     0.860100000000     0.850600000000     0          
H135     H      0.496500000000     0.829300000000     0.916600000000     0          
H136     H      0.962800000000     0.909900000000     0.546600000000     0          
O137     O      0.782410000000     0.267900000000     0.396500000000     0          
O138     O      0.801300000000     0.349500000000     0.422200000000     0          
O139     O      0.742200000000     0.338800000000     0.352500000000     0          
O140     O      0.793100000000     0.641600000000     0.079700000000     0          
O141     O      0.733300000000     0.651600000000     0.150200000000     0          
C142     C      0.774400000000     0.358500000000     0.370500000000     0          
C143     C      0.775650000000     0.399540000000     0.335800000000     0          
C144     C      0.748590000000     0.410500000000     0.277100000000     0          
H145     H      0.729300000000     0.391900000000     0.258900000000     0          
C146     C      0.749880000000     0.448740000000     0.245000000000     0          
H147     H      0.731400000000     0.456300000000     0.204900000000     0          
C148     C      0.778210000000     0.475920000000     0.271800000000     0          
C149     C      0.805200000000     0.464900000000     0.330500000000     0          
C150     C      0.804000000000     0.426690000000     0.362500000000     0          
H151     H      0.822500000000     0.419200000000     0.402700000000     0          
C152     C      0.834000000000     0.495300000000     0.363600000000     0          
H153     H      0.830400000000     0.520700000000     0.335800000000     0          
H154     H      0.861400000000     0.485800000000     0.356000000000     0          
H155     H      0.828800000000     0.499000000000     0.420400000000     0          
C156     C      0.765200000000     0.632600000000     0.131600000000     0          
C157     C      0.770130000000     0.592600000000     0.171300000000     0          
C158     C      0.744480000000     0.580190000000     0.231300000000     0          
H159     H      0.724800000000     0.597900000000     0.251400000000     0          
C160     C      0.747700000000     0.541810000000     0.262100000000     0          
H161     H      0.730100000000     0.533300000000     0.303200000000     0          
C162     C      0.776500000000     0.515860000000     0.232800000000     0          
C163     C      0.802100000000     0.528270000000     0.172700000000     0          
C164     C      0.798950000000     0.566650000000     0.142000000000     0          
H165     H      0.816500000000     0.575100000000     0.100900000000     0          
C166     C      0.833500000000     0.500300000000     0.140500000000     0          
H167     H      0.831600000000     0.474500000000     0.167700000000     0          
H168     H      0.860100000000     0.511800000000     0.149400000000     0          
H169     H      0.829300000000     0.496500000000     0.083400000000     0          
O170     O      0.217590000000     0.732100000000     0.396500000000     0          
O171     O      0.198700000000     0.650500000000     0.422200000000     0          
O172     O      0.257800000000     0.661200000000     0.352500000000     0          
O173     O      0.206900000000     0.358400000000     0.079700000000     0          
O174     O      0.266700000000     0.348400000000     0.150200000000     0          
C175     C      0.225600000000     0.641500000000     0.370500000000     0          
C176     C      0.224350000000     0.600460000000     0.335800000000     0          
C177     C      0.251410000000     0.589500000000     0.277100000000     0          
H178     H      0.270700000000     0.608100000000     0.258900000000     0          
C179     C      0.250120000000     0.551260000000     0.245000000000     0          
H180     H      0.268600000000     0.543700000000     0.204900000000     0          
C181     C      0.221790000000     0.524080000000     0.271800000000     0          
C182     C      0.194800000000     0.535100000000     0.330500000000     0          
C183     C      0.196000000000     0.573310000000     0.362500000000     0          
H184     H      0.177500000000     0.580800000000     0.402700000000     0          
C185     C      0.166000000000     0.504700000000     0.363600000000     0          
H186     H      0.169600000000     0.479300000000     0.335800000000     0          
H187     H      0.138600000000     0.514200000000     0.356000000000     0          
H188     H      0.171200000000     0.501000000000     0.420400000000     0          
C189     C      0.234800000000     0.367400000000     0.131600000000     0          
C190     C      0.229870000000     0.407400000000     0.171300000000     0          
C191     C      0.255520000000     0.419810000000     0.231300000000     0          
H192     H      0.275200000000     0.402100000000     0.251400000000     0          
C193     C      0.252300000000     0.458190000000     0.262100000000     0          
H194     H      0.269900000000     0.466700000000     0.303200000000     0          
C195     C      0.223500000000     0.484140000000     0.232800000000     0          
C196     C      0.197900000000     0.471730000000     0.172700000000     0          
C197     C      0.201050000000     0.433350000000     0.142000000000     0          
H198     H      0.183500000000     0.424900000000     0.100900000000     0          
C199     C      0.166500000000     0.499700000000     0.140500000000     0          
H200     H      0.168400000000     0.525500000000     0.167700000000     0          
H201     H      0.139900000000     0.488200000000     0.149400000000     0          
H202     H      0.170700000000     0.503500000000     0.083400000000     0          
O203     O      0.767900000000     0.717590000000     0.896500000000     0          
O204     O      0.849500000000     0.698700000000     0.922200000000     0          
O205     O      0.838800000000     0.757800000000     0.852500000000     0          
O206     O      0.141600000000     0.706900000000     0.579700000000     0          
O207     O      0.151600000000     0.766700000000     0.650200000000     0          
C208     C      0.858500000000     0.725600000000     0.870500000000     0          
C209     C      0.899540000000     0.724350000000     0.835800000000     0          
C210     C      0.910500000000     0.751410000000     0.777100000000     0          
H211     H      0.891900000000     0.770700000000     0.758900000000     0          
C212     C      0.948740000000     0.750120000000     0.745000000000     0          
H213     H      0.956300000000     0.768600000000     0.704900000000     0          
C214     C      0.975920000000     0.721790000000     0.771800000000     0          
C215     C      0.964900000000     0.694800000000     0.830500000000     0          
C216     C      0.926690000000     0.696000000000     0.862500000000     0          
H217     H      0.919200000000     0.677500000000     0.902700000000     0          
C218     C      0.995300000000     0.666000000000     0.863600000000     0          
H219     H      0.020700000000     0.669600000000     0.835800000000     0          
H220     H      0.985800000000     0.638600000000     0.856000000000     0          
H221     H      0.999000000000     0.671200000000     0.920400000000     0          
C222     C      0.132600000000     0.734800000000     0.631600000000     0          
C223     C      0.092600000000     0.729870000000     0.671300000000     0          
C224     C      0.080190000000     0.755520000000     0.731300000000     0          
H225     H      0.097900000000     0.775200000000     0.751400000000     0          
C226     C      0.041810000000     0.752300000000     0.762100000000     0          
H227     H      0.033300000000     0.769900000000     0.803200000000     0          
C228     C      0.015860000000     0.723500000000     0.732800000000     0          
C229     C      0.028270000000     0.697900000000     0.672700000000     0          
C230     C      0.066650000000     0.701050000000     0.642000000000     0          
H231     H      0.075100000000     0.683500000000     0.600900000000     0          
C232     C      0.000300000000     0.666500000000     0.640500000000     0          
H233     H      0.974500000000     0.668400000000     0.667700000000     0          
H234     H      0.011800000000     0.639900000000     0.649400000000     0          
H235     H      0.996500000000     0.670700000000     0.583400000000     0          
O236     O      0.232100000000     0.282410000000     0.896500000000     0          
O237     O      0.150500000000     0.301300000000     0.922200000000     0          
O238     O      0.161200000000     0.242200000000     0.852500000000     0          
O239     O      0.858400000000     0.293100000000     0.579700000000     0          
O240     O      0.848400000000     0.233300000000     0.650200000000     0          
C241     C      0.141500000000     0.274400000000     0.870500000000     0          
C242     C      0.100460000000     0.275650000000     0.835800000000     0          
C243     C      0.089500000000     0.248590000000     0.777100000000     0          
H244     H      0.108100000000     0.229300000000     0.758900000000     0          
C245     C      0.051260000000     0.249880000000     0.745000000000     0          
H246     H      0.043700000000     0.231400000000     0.704900000000     0          
C247     C      0.024080000000     0.278210000000     0.771800000000     0          
C248     C      0.035100000000     0.305200000000     0.830500000000     0          
C249     C      0.073310000000     0.304000000000     0.862500000000     0          
H250     H      0.080800000000     0.322500000000     0.902700000000     0          
C251     C      0.004700000000     0.334000000000     0.863600000000     0          
H252     H      0.979300000000     0.330400000000     0.835800000000     0          
H253     H      0.014200000000     0.361400000000     0.856000000000     0          
H254     H      0.001000000000     0.328800000000     0.920400000000     0          
C255     C      0.867400000000     0.265200000000     0.631600000000     0          
C256     C      0.907400000000     0.270130000000     0.671300000000     0          
C257     C      0.919810000000     0.244480000000     0.731300000000     0          
H258     H      0.902100000000     0.224800000000     0.751400000000     0          
C259     C      0.958190000000     0.247700000000     0.762100000000     0          
H260     H      0.966700000000     0.230100000000     0.803200000000     0          
C261     C      0.984140000000     0.276500000000     0.732800000000     0          
C262     C      0.971730000000     0.302100000000     0.672700000000     0          
C263     C      0.933350000000     0.298950000000     0.642000000000     0          
H264     H      0.924900000000     0.316500000000     0.600900000000     0          
C265     C      0.999700000000     0.333500000000     0.640500000000     0          
H266     H      0.025500000000     0.331600000000     0.667700000000     0          
H267     H      0.988200000000     0.360100000000     0.649400000000     0          
H268     H      0.003500000000     0.329300000000     0.583400000000     0          
O269     O      0.282410000000     0.232100000000     0.896500000000     0          
O270     O      0.301300000000     0.150500000000     0.922200000000     0          
O271     O      0.242200000000     0.161200000000     0.852500000000     0          
O272     O      0.293100000000     0.858400000000     0.579700000000     0          
O273     O      0.233300000000     0.848400000000     0.650200000000     0          
C274     C      0.274400000000     0.141500000000     0.870500000000     0          
C275     C      0.275650000000     0.100460000000     0.835800000000     0          
C276     C      0.248590000000     0.089500000000     0.777100000000     0          
H277     H      0.229300000000     0.108100000000     0.758900000000     0          
C278     C      0.249880000000     0.051260000000     0.745000000000     0          
H279     H      0.231400000000     0.043700000000     0.704900000000     0          
C280     C      0.278210000000     0.024080000000     0.771800000000     0          
C281     C      0.305200000000     0.035100000000     0.830500000000     0          
C282     C      0.304000000000     0.073310000000     0.862500000000     0          
H283     H      0.322500000000     0.080800000000     0.902700000000     0          
C284     C      0.334000000000     0.004700000000     0.863600000000     0          
H285     H      0.330400000000     0.979300000000     0.835800000000     0          
H286     H      0.361400000000     0.014200000000     0.856000000000     0          
H287     H      0.328800000000     0.001000000000     0.920400000000     0          
C288     C      0.265200000000     0.867400000000     0.631600000000     0          
C289     C      0.270130000000     0.907400000000     0.671300000000     0          
C290     C      0.244480000000     0.919810000000     0.731300000000     0          
H291     H      0.224800000000     0.902100000000     0.751400000000     0          
C292     C      0.247700000000     0.958190000000     0.762100000000     0          
H293     H      0.230100000000     0.966700000000     0.803200000000     0          
C294     C      0.276500000000     0.984140000000     0.732800000000     0          
C295     C      0.302100000000     0.971730000000     0.672700000000     0          
C296     C      0.298950000000     0.933350000000     0.642000000000     0          
H297     H      0.316500000000     0.924900000000     0.600900000000     0          
C298     C      0.333500000000     0.999700000000     0.640500000000     0          
H299     H      0.331600000000     0.025500000000     0.667700000000     0          
H300     H      0.360100000000     0.988200000000     0.649400000000     0          
H301     H      0.329300000000     0.003500000000     0.583400000000     0          
H302     H      0.409900000000     0.537200000000     0.953400000000     0          
O303     O      0.717590000000     0.767900000000     0.896500000000     0          
O304     O      0.698700000000     0.849500000000     0.922200000000     0          
O305     O      0.757800000000     0.838800000000     0.852500000000     0          
O306     O      0.706900000000     0.141600000000     0.579700000000     0          
O307     O      0.766700000000     0.151600000000     0.650200000000     0          
C308     C      0.725600000000     0.858500000000     0.870500000000     0          
C309     C      0.724350000000     0.899540000000     0.835800000000     0          
C310     C      0.751410000000     0.910500000000     0.777100000000     0          
H311     H      0.770700000000     0.891900000000     0.758900000000     0          
C312     C      0.750120000000     0.948740000000     0.745000000000     0          
H313     H      0.768600000000     0.956300000000     0.704900000000     0          
C314     C      0.721790000000     0.975920000000     0.771800000000     0          
C315     C      0.694800000000     0.964900000000     0.830500000000     0          
C316     C      0.696000000000     0.926690000000     0.862500000000     0          
H317     H      0.677500000000     0.919200000000     0.902700000000     0          
C318     C      0.666000000000     0.995300000000     0.863600000000     0          
H319     H      0.669600000000     0.020700000000     0.835800000000     0          
H320     H      0.638600000000     0.985800000000     0.856000000000     0          
H321     H      0.671200000000     0.999000000000     0.920400000000     0          
C322     C      0.734800000000     0.132600000000     0.631600000000     0          
C323     C      0.729870000000     0.092600000000     0.671300000000     0          
C324     C      0.755520000000     0.080190000000     0.731300000000     0          
H325     H      0.775200000000     0.097900000000     0.751400000000     0          
C326     C      0.752300000000     0.041810000000     0.762100000000     0          
H327     H      0.769900000000     0.033300000000     0.803200000000     0          
C328     C      0.723500000000     0.015860000000     0.732800000000     0          
C329     C      0.697900000000     0.028270000000     0.672700000000     0          
C330     C      0.701050000000     0.066650000000     0.642000000000     0          
H331     H      0.683500000000     0.075100000000     0.600900000000     0          
C332     C      0.666500000000     0.000300000000     0.640500000000     0          
H333     H      0.668400000000     0.974500000000     0.667700000000     0          
H334     H      0.639900000000     0.011800000000     0.649400000000     0          
H335     H      0.670700000000     0.996500000000     0.583400000000     0          
H336     H      0.590100000000     0.462800000000     0.953400000000     0          
O337     O      0.267900000000     0.782410000000     0.396500000000     0          
O338     O      0.349500000000     0.801300000000     0.422200000000     0          
O339     O      0.338800000000     0.742200000000     0.352500000000     0          
O340     O      0.641600000000     0.793100000000     0.079700000000     0          
O341     O      0.651600000000     0.733300000000     0.150200000000     0          
C342     C      0.358500000000     0.774400000000     0.370500000000     0          
C343     C      0.399540000000     0.775650000000     0.335800000000     0          
C344     C      0.410500000000     0.748590000000     0.277100000000     0          
H345     H      0.391900000000     0.729300000000     0.258900000000     0          
C346     C      0.448740000000     0.749880000000     0.245000000000     0          
H347     H      0.456300000000     0.731400000000     0.204900000000     0          
C348     C      0.475920000000     0.778210000000     0.271800000000     0          
C349     C      0.464900000000     0.805200000000     0.330500000000     0          
C350     C      0.426690000000     0.804000000000     0.362500000000     0          
H351     H      0.419200000000     0.822500000000     0.402700000000     0          
C352     C      0.495300000000     0.834000000000     0.363600000000     0          
H353     H      0.520700000000     0.830400000000     0.335800000000     0          
H354     H      0.485800000000     0.861400000000     0.356000000000     0          
H355     H      0.499000000000     0.828800000000     0.420400000000     0          
C356     C      0.632600000000     0.765200000000     0.131600000000     0          
C357     C      0.592600000000     0.770130000000     0.171300000000     0          
C358     C      0.580190000000     0.744480000000     0.231300000000     0          
H359     H      0.597900000000     0.724800000000     0.251400000000     0          
C360     C      0.541810000000     0.747700000000     0.262100000000     0          
H361     H      0.533300000000     0.730100000000     0.303200000000     0          
C362     C      0.515860000000     0.776500000000     0.232800000000     0          
C363     C      0.528270000000     0.802100000000     0.172700000000     0          
C364     C      0.566650000000     0.798950000000     0.142000000000     0          
H365     H      0.575100000000     0.816500000000     0.100900000000     0          
C366     C      0.500300000000     0.833500000000     0.140500000000     0          
H367     H      0.474500000000     0.831600000000     0.167700000000     0          
H368     H      0.511800000000     0.860100000000     0.149400000000     0          
H369     H      0.496500000000     0.829300000000     0.083400000000     0          
H370     H      0.962800000000     0.909900000000     0.453400000000     0          
O371     O      0.732100000000     0.217590000000     0.396500000000     0          
O372     O      0.650500000000     0.198700000000     0.422200000000     0          
O373     O      0.661200000000     0.257800000000     0.352500000000     0          
O374     O      0.358400000000     0.206900000000     0.079700000000     0          
O375     O      0.348400000000     0.266700000000     0.150200000000     0          
C376     C      0.641500000000     0.225600000000     0.370500000000     0          
C377     C      0.600460000000     0.224350000000     0.335800000000     0          
C378     C      0.589500000000     0.251410000000     0.277100000000     0          
H379     H      0.608100000000     0.270700000000     0.258900000000     0          
C380     C      0.551260000000     0.250120000000     0.245000000000     0          
H381     H      0.543700000000     0.268600000000     0.204900000000     0          
C382     C      0.524080000000     0.221790000000     0.271800000000     0          
C383     C      0.535100000000     0.194800000000     0.330500000000     0          
C384     C      0.573310000000     0.196000000000     0.362500000000     0          
H385     H      0.580800000000     0.177500000000     0.402700000000     0          
C386     C      0.504700000000     0.166000000000     0.363600000000     0          
H387     H      0.479300000000     0.169600000000     0.335800000000     0          
H388     H      0.514200000000     0.138600000000     0.356000000000     0          
H389     H      0.501000000000     0.171200000000     0.420400000000     0          
C390     C      0.367400000000     0.234800000000     0.131600000000     0          
C391     C      0.407400000000     0.229870000000     0.171300000000     0          
C392     C      0.419810000000     0.255520000000     0.231300000000     0          
H393     H      0.402100000000     0.275200000000     0.251400000000     0          
C394     C      0.458190000000     0.252300000000     0.262100000000     0          
H395     H      0.466700000000     0.269900000000     0.303200000000     0          
C396     C      0.484140000000     0.223500000000     0.232800000000     0          
C397     C      0.471730000000     0.197900000000     0.172700000000     0          
C398     C      0.433350000000     0.201050000000     0.142000000000     0          
H399     H      0.424900000000     0.183500000000     0.100900000000     0          
C400     C      0.499700000000     0.166500000000     0.140500000000     0          
H401     H      0.525500000000     0.168400000000     0.167700000000     0          
H402     H      0.488200000000     0.139900000000     0.149400000000     0          
H403     H      0.503500000000     0.170700000000     0.083400000000     0          
H404     H      0.037200000000     0.090100000000     0.453400000000     0          
O405     O      0.217590000000     0.732100000000     0.603500000000     0          
O406     O      0.198700000000     0.650500000000     0.577800000000     0          
O407     O      0.257800000000     0.661200000000     0.647500000000     0          
O408     O      0.206900000000     0.358400000000     0.920300000000     0          
O409     O      0.266700000000     0.348400000000     0.849800000000     0          
C410     C      0.225600000000     0.641500000000     0.629500000000     0          
C411     C      0.224350000000     0.600460000000     0.664200000000     0          
C412     C      0.251410000000     0.589500000000     0.722900000000     0          
H413     H      0.270700000000     0.608100000000     0.741100000000     0          
C414     C      0.250120000000     0.551260000000     0.755000000000     0          
H415     H      0.268600000000     0.543700000000     0.795100000000     0          
C416     C      0.221790000000     0.524080000000     0.728200000000     0          
C417     C      0.194800000000     0.535100000000     0.669500000000     0          
C418     C      0.196000000000     0.573310000000     0.637500000000     0          
H419     H      0.177500000000     0.580800000000     0.597300000000     0          
C420     C      0.166000000000     0.504700000000     0.636400000000     0          
H421     H      0.169600000000     0.479300000000     0.664200000000     0          
H422     H      0.138600000000     0.514200000000     0.644000000000     0          
H423     H      0.171200000000     0.501000000000     0.579600000000     0          
C424     C      0.234800000000     0.367400000000     0.868400000000     0          
C425     C      0.229870000000     0.407400000000     0.828700000000     0          
C426     C      0.255520000000     0.419810000000     0.768700000000     0          
H427     H      0.275200000000     0.402100000000     0.748600000000     0          
C428     C      0.252300000000     0.458190000000     0.737900000000     0          
H429     H      0.269900000000     0.466700000000     0.696800000000     0          
C430     C      0.223500000000     0.484140000000     0.767200000000     0          
C431     C      0.197900000000     0.471730000000     0.827300000000     0          
C432     C      0.201050000000     0.433350000000     0.858000000000     0          
H433     H      0.183500000000     0.424900000000     0.899100000000     0          
C434     C      0.166500000000     0.499700000000     0.859500000000     0          
H435     H      0.168400000000     0.525500000000     0.832300000000     0          
H436     H      0.139900000000     0.488200000000     0.850600000000     0          
H437     H      0.170700000000     0.503500000000     0.916600000000     0          
O438     O      0.782410000000     0.267900000000     0.603500000000     0          
O439     O      0.801300000000     0.349500000000     0.577800000000     0          
O440     O      0.742200000000     0.338800000000     0.647500000000     0          
O441     O      0.793100000000     0.641600000000     0.920300000000     0          
O442     O      0.733300000000     0.651600000000     0.849800000000     0          
C443     C      0.774400000000     0.358500000000     0.629500000000     0          
C444     C      0.775650000000     0.399540000000     0.664200000000     0          
C445     C      0.748590000000     0.410500000000     0.722900000000     0          
H446     H      0.729300000000     0.391900000000     0.741100000000     0          
C447     C      0.749880000000     0.448740000000     0.755000000000     0          
H448     H      0.731400000000     0.456300000000     0.795100000000     0          
C449     C      0.778210000000     0.475920000000     0.728200000000     0          
C450     C      0.805200000000     0.464900000000     0.669500000000     0          
C451     C      0.804000000000     0.426690000000     0.637500000000     0          
H452     H      0.822500000000     0.419200000000     0.597300000000     0          
C453     C      0.834000000000     0.495300000000     0.636400000000     0          
H454     H      0.830400000000     0.520700000000     0.664200000000     0          
H455     H      0.861400000000     0.485800000000     0.644000000000     0          
H456     H      0.828800000000     0.499000000000     0.579600000000     0          
C457     C      0.765200000000     0.632600000000     0.868400000000     0          
C458     C      0.770130000000     0.592600000000     0.828700000000     0          
C459     C      0.744480000000     0.580190000000     0.768700000000     0          
H460     H      0.724800000000     0.597900000000     0.748600000000     0          
C461     C      0.747700000000     0.541810000000     0.737900000000     0          
H462     H      0.730100000000     0.533300000000     0.696800000000     0          
C463     C      0.776500000000     0.515860000000     0.767200000000     0          
C464     C      0.802100000000     0.528270000000     0.827300000000     0          
C465     C      0.798950000000     0.566650000000     0.858000000000     0          
H466     H      0.816500000000     0.575100000000     0.899100000000     0          
C467     C      0.833500000000     0.500300000000     0.859500000000     0          
H468     H      0.831600000000     0.474500000000     0.832300000000     0          
H469     H      0.860100000000     0.511800000000     0.850600000000     0          
H470     H      0.829300000000     0.496500000000     0.916600000000     0          
O471     O      0.232100000000     0.282410000000     0.103500000000     0          
O472     O      0.150500000000     0.301300000000     0.077800000000     0          
O473     O      0.161200000000     0.242200000000     0.147500000000     0          
O474     O      0.858400000000     0.293100000000     0.420300000000     0          
O475     O      0.848400000000     0.233300000000     0.349800000000     0          
C476     C      0.141500000000     0.274400000000     0.129500000000     0          
C477     C      0.100460000000     0.275650000000     0.164200000000     0          
C478     C      0.089500000000     0.248590000000     0.222900000000     0          
H479     H      0.108100000000     0.229300000000     0.241100000000     0          
C480     C      0.051260000000     0.249880000000     0.255000000000     0          
H481     H      0.043700000000     0.231400000000     0.295100000000     0          
C482     C      0.024080000000     0.278210000000     0.228200000000     0          
C483     C      0.035100000000     0.305200000000     0.169500000000     0          
C484     C      0.073310000000     0.304000000000     0.137500000000     0          
H485     H      0.080800000000     0.322500000000     0.097300000000     0          
C486     C      0.004700000000     0.334000000000     0.136400000000     0          
H487     H      0.979300000000     0.330400000000     0.164200000000     0          
H488     H      0.014200000000     0.361400000000     0.144000000000     0          
H489     H      0.001000000000     0.328800000000     0.079600000000     0          
C490     C      0.867400000000     0.265200000000     0.368400000000     0          
C491     C      0.907400000000     0.270130000000     0.328700000000     0          
C492     C      0.919810000000     0.244480000000     0.268700000000     0          
H493     H      0.902100000000     0.224800000000     0.248600000000     0          
C494     C      0.958190000000     0.247700000000     0.237900000000     0          
H495     H      0.966700000000     0.230100000000     0.196800000000     0          
C496     C      0.984140000000     0.276500000000     0.267200000000     0          
C497     C      0.971730000000     0.302100000000     0.327300000000     0          
C498     C      0.933350000000     0.298950000000     0.358000000000     0          
H499     H      0.924900000000     0.316500000000     0.399100000000     0          
C500     C      0.999700000000     0.333500000000     0.359500000000     0          
H501     H      0.025500000000     0.331600000000     0.332300000000     0          
H502     H      0.988200000000     0.360100000000     0.350600000000     0          
H503     H      0.003500000000     0.329300000000     0.416600000000     0          
O504     O      0.767900000000     0.717590000000     0.103500000000     0          
O505     O      0.849500000000     0.698700000000     0.077800000000     0          
O506     O      0.838800000000     0.757800000000     0.147500000000     0          
O507     O      0.141600000000     0.706900000000     0.420300000000     0          
O508     O      0.151600000000     0.766700000000     0.349800000000     0          
C509     C      0.858500000000     0.725600000000     0.129500000000     0          
C510     C      0.899540000000     0.724350000000     0.164200000000     0          
C511     C      0.910500000000     0.751410000000     0.222900000000     0          
H512     H      0.891900000000     0.770700000000     0.241100000000     0          
C513     C      0.948740000000     0.750120000000     0.255000000000     0          
H514     H      0.956300000000     0.768600000000     0.295100000000     0          
C515     C      0.975920000000     0.721790000000     0.228200000000     0          
C516     C      0.964900000000     0.694800000000     0.169500000000     0          
C517     C      0.926690000000     0.696000000000     0.137500000000     0          
H518     H      0.919200000000     0.677500000000     0.097300000000     0          
C519     C      0.995300000000     0.666000000000     0.136400000000     0          
H520     H      0.020700000000     0.669600000000     0.164200000000     0          
H521     H      0.985800000000     0.638600000000     0.144000000000     0          
H522     H      0.999000000000     0.671200000000     0.079600000000     0          
C523     C      0.132600000000     0.734800000000     0.368400000000     0          
C524     C      0.092600000000     0.729870000000     0.328700000000     0          
C525     C      0.080190000000     0.755520000000     0.268700000000     0          
H526     H      0.097900000000     0.775200000000     0.248600000000     0          
C527     C      0.041810000000     0.752300000000     0.237900000000     0          
H528     H      0.033300000000     0.769900000000     0.196800000000     0          
C529     C      0.015860000000     0.723500000000     0.267200000000     0          
C530     C      0.028270000000     0.697900000000     0.327300000000     0          
C531     C      0.066650000000     0.701050000000     0.358000000000     0          
H532     H      0.075100000000     0.683500000000     0.399100000000     0          
C533     C      0.000300000000     0.666500000000     0.359500000000     0          
H534     H      0.974500000000     0.668400000000     0.332300000000     0          
H535     H      0.011800000000     0.639900000000     0.350600000000     0          
H536     H      0.996500000000     0.670700000000     0.416600000000     0          
Zr537    Zr     0.693610000000     0.798050000000     0.000000000000     0          
O538     O      0.752000000000     0.805000000000     0.000000000000     0          
O539     O      0.684200000000     0.735500000000     0.000000000000     0          
C540     C      0.584300000000     0.478300000000     0.000000000000     0          
H541     H      0.600600000000     0.502000000000     0.000000000000     0          
C542     C      0.490000000000     0.540800000000     0.000000000000     0          
Zr543    Zr     0.306390000000     0.201950000000     0.000000000000     0          
O544     O      0.248000000000     0.195000000000     0.000000000000     0          
O545     O      0.315800000000     0.264500000000     0.000000000000     0          
C546     C      0.415700000000     0.521700000000     0.000000000000     0          
H547     H      0.399400000000     0.498000000000     0.000000000000     0          
C548     C      0.460600000000     0.511500000000     0.000000000000     0          
Zr549    Zr     0.701950000000     0.193610000000     0.500000000000     0          
O550     O      0.695000000000     0.252000000000     0.500000000000     0          
O551     O      0.764500000000     0.184200000000     0.500000000000     0          
C552     C      0.021700000000     0.084300000000     0.500000000000     0          
H553     H      0.998000000000     0.100600000000     0.500000000000     0          
C554     C      0.011500000000     0.039400000000     0.500000000000     0          
Zr556    Zr     0.298050000000     0.806390000000     0.500000000000     0          
O557     O      0.305000000000     0.748000000000     0.500000000000     0          
O558     O      0.235500000000     0.815800000000     0.500000000000     0          
C559     C      0.978300000000     0.915700000000     0.500000000000     0          
H560     H      0.002000000000     0.899400000000     0.500000000000     0          
C562     C      0.040800000000     0.010000000000     0.500000000000     0          
Zr563    Zr     0.806390000000     0.298050000000     0.500000000000     0          
O564     O      0.748000000000     0.305000000000     0.500000000000     0          
O565     O      0.815800000000     0.235500000000     0.500000000000     0          
C566     C      0.960600000000     0.988500000000     0.500000000000     0          
H568     H      0.933200000000     0.980400000000     0.500000000000     0          
Zr569    Zr     0.193610000000     0.701950000000     0.500000000000     0          
O570     O      0.252000000000     0.695000000000     0.500000000000     0          
O571     O      0.184200000000     0.764500000000     0.500000000000     0          
C573     C      0.990000000000     0.959200000000     0.500000000000     0          
H574     H      0.066800000000     0.019600000000     0.500000000000     0          
Zr575    Zr     0.798050000000     0.693610000000     0.000000000000     0          
O576     O      0.805000000000     0.752000000000     0.000000000000     0          
O577     O      0.735500000000     0.684200000000     0.000000000000     0          
C578     C      0.540800000000     0.490000000000     0.000000000000     0          
H579     H      0.480400000000     0.566800000000     0.000000000000     0          
Zr580    Zr     0.201950000000     0.306390000000     0.000000000000     0          
O581     O      0.195000000000     0.248000000000     0.000000000000     0          
O582     O      0.264500000000     0.315800000000     0.000000000000     0          
C583     C      0.511500000000     0.460600000000     0.000000000000     0          
H584     H      0.519600000000     0.433200000000     0.000000000000     0          
Zr585    Zr     0.782120000000     0.782120000000     0.104370000000     0          
Zr586    Zr     0.708710000000     0.708710000000     0.103890000000     0          
O587     O      0.663100000000     0.663100000000     0.069300000000     0          
C588     C      0.605920000000     0.605920000000     0.071530000000     0          
H589     H      0.615900000000     0.615900000000     0.120400000000     0          
C590     C      0.576580000000     0.576580000000     0.071530000000     0          
H591     H      0.566600000000     0.566600000000     0.120400000000     0          
C592     C      0.740200000000     0.740200000000     0.262900000000     0          
C593     C      0.737500000000     0.737500000000     0.352400000000     0          
C594     C      0.761500000000     0.761500000000     0.400000000000     0          
H595     H      0.779800000000     0.779800000000     0.376300000000     0          
C596     C      0.758870000000     0.758870000000     0.482300000000     0          
C597     C      0.732250000000     0.732250000000     0.517100000000     0          
C598     C      0.708260000000     0.708260000000     0.469400000000     0          
H599     H      0.689700000000     0.689700000000     0.493200000000     0          
C600     C      0.710900000000     0.710900000000     0.387200000000     0          
H601     H      0.694250000000     0.694250000000     0.354200000000     0          
C602     C      0.729600000000     0.729600000000     0.599300000000     0          
H603     H      0.711050000000     0.711050000000     0.623200000000     0          
C604     C      0.753600000000     0.753600000000     0.646900000000     0          
C605     C      0.780200000000     0.780200000000     0.612200000000     0          
H606     H      0.796550000000     0.796550000000     0.645200000000     0          
C607     C      0.782850000000     0.782850000000     0.529900000000     0          
C608     C      0.750900000000     0.750900000000     0.736100000000     0          
O609     O      0.716400000000     0.716400000000     0.228700000000     0          
O610     O      0.765400000000     0.765400000000     0.238700000000     0          
O611     O      0.725800000000     0.725800000000     0.760800000000     0          
O612     O      0.774300000000     0.774300000000     0.771500000000     0          
Zr613    Zr     0.217880000000     0.217880000000     0.104370000000     0          
Zr614    Zr     0.291290000000     0.291290000000     0.103890000000     0          
O615     O      0.336900000000     0.336900000000     0.069300000000     0          
C616     C      0.394080000000     0.394080000000     0.071530000000     0          
H617     H      0.384100000000     0.384100000000     0.120400000000     0          
C618     C      0.423420000000     0.423420000000     0.071530000000     0          
H619     H      0.433400000000     0.433400000000     0.120400000000     0          
C620     C      0.259800000000     0.259800000000     0.262900000000     0          
C621     C      0.262500000000     0.262500000000     0.352400000000     0          
C622     C      0.238500000000     0.238500000000     0.400000000000     0          
H623     H      0.220200000000     0.220200000000     0.376300000000     0          
C624     C      0.241130000000     0.241130000000     0.482300000000     0          
C625     C      0.267750000000     0.267750000000     0.517100000000     0          
C626     C      0.291740000000     0.291740000000     0.469400000000     0          
H627     H      0.310300000000     0.310300000000     0.493200000000     0          
C628     C      0.289100000000     0.289100000000     0.387200000000     0          
H629     H      0.305750000000     0.305750000000     0.354200000000     0          
C630     C      0.270400000000     0.270400000000     0.599300000000     0          
H631     H      0.288950000000     0.288950000000     0.623200000000     0          
C632     C      0.246400000000     0.246400000000     0.646900000000     0          
C633     C      0.219800000000     0.219800000000     0.612200000000     0          
H634     H      0.203450000000     0.203450000000     0.645200000000     0          
C635     C      0.217150000000     0.217150000000     0.529900000000     0          
C636     C      0.249100000000     0.249100000000     0.736100000000     0          
O637     O      0.283600000000     0.283600000000     0.228700000000     0          
O638     O      0.234600000000     0.234600000000     0.238700000000     0          
O639     O      0.274200000000     0.274200000000     0.760800000000     0          
O640     O      0.225700000000     0.225700000000     0.771500000000     0          
Zr641    Zr     0.717880000000     0.282120000000     0.604370000000     0          
Zr642    Zr     0.791290000000     0.208710000000     0.603890000000     0          
O643     O      0.836900000000     0.163100000000     0.569300000000     0          
C644     C      0.894080000000     0.105920000000     0.571530000000     0          
H645     H      0.884100000000     0.115900000000     0.620400000000     0          
C646     C      0.923420000000     0.076580000000     0.571530000000     0          
H647     H      0.933400000000     0.066600000000     0.620400000000     0          
Zr648    Zr     0.282120000000     0.717880000000     0.604370000000     0          
Zr649    Zr     0.208710000000     0.791290000000     0.603890000000     0          
O650     O      0.163100000000     0.836900000000     0.569300000000     0          
C651     C      0.105920000000     0.894080000000     0.571530000000     0          
H652     H      0.115900000000     0.884100000000     0.620400000000     0          
C653     C      0.076580000000     0.923420000000     0.571530000000     0          
H654     H      0.066600000000     0.933400000000     0.620400000000     0          
C655     C      0.240200000000     0.759800000000     0.762900000000     0          
C656     C      0.237500000000     0.762500000000     0.852400000000     0          
C657     C      0.261500000000     0.738500000000     0.900000000000     0          
H658     H      0.279800000000     0.720200000000     0.876300000000     0          
C659     C      0.258870000000     0.741130000000     0.982300000000     0          
C660     C      0.232250000000     0.767750000000     0.017100000000     0          
C661     C      0.208260000000     0.791740000000     0.969400000000     0          
H662     H      0.189700000000     0.810300000000     0.993200000000     0          
C663     C      0.210900000000     0.789100000000     0.887200000000     0          
H664     H      0.194250000000     0.805750000000     0.854200000000     0          
C665     C      0.229600000000     0.770400000000     0.099300000000     0          
H666     H      0.211050000000     0.788950000000     0.123200000000     0          
C667     C      0.253600000000     0.746400000000     0.146900000000     0          
C668     C      0.280200000000     0.719800000000     0.112200000000     0          
H669     H      0.296550000000     0.703450000000     0.145200000000     0          
C670     C      0.282850000000     0.717150000000     0.029900000000     0          
C671     C      0.250900000000     0.749100000000     0.236100000000     0          
O672     O      0.216400000000     0.783600000000     0.728700000000     0          
O673     O      0.265400000000     0.734600000000     0.738700000000     0          
O674     O      0.225800000000     0.774200000000     0.260800000000     0          
O675     O      0.274300000000     0.725700000000     0.271500000000     0          
Zr676    Zr     0.717880000000     0.282120000000     0.395630000000     0          
Zr677    Zr     0.791290000000     0.208710000000     0.396110000000     0          
O678     O      0.836900000000     0.163100000000     0.430700000000     0          
C679     C      0.894080000000     0.105920000000     0.428470000000     0          
H680     H      0.884100000000     0.115900000000     0.379600000000     0          
C681     C      0.923420000000     0.076580000000     0.428470000000     0          
H682     H      0.933400000000     0.066600000000     0.379600000000     0          
C683     C      0.759800000000     0.240200000000     0.237100000000     0          
C684     C      0.762500000000     0.237500000000     0.147600000000     0          
C685     C      0.738500000000     0.261500000000     0.100000000000     0          
H686     H      0.720200000000     0.279800000000     0.123700000000     0          
C687     C      0.741130000000     0.258870000000     0.017700000000     0          
C688     C      0.767750000000     0.232250000000     0.982900000000     0          
C689     C      0.791740000000     0.208260000000     0.030600000000     0          
H690     H      0.810300000000     0.189700000000     0.006800000000     0          
C691     C      0.789100000000     0.210900000000     0.112800000000     0          
H692     H      0.805750000000     0.194250000000     0.145800000000     0          
C693     C      0.770400000000     0.229600000000     0.900700000000     0          
H694     H      0.788950000000     0.211050000000     0.876800000000     0          
C695     C      0.746400000000     0.253600000000     0.853100000000     0          
C696     C      0.719800000000     0.280200000000     0.887800000000     0          
H697     H      0.703450000000     0.296550000000     0.854800000000     0          
C698     C      0.717150000000     0.282850000000     0.970100000000     0          
C699     C      0.749100000000     0.250900000000     0.763900000000     0          
O700     O      0.783600000000     0.216400000000     0.271300000000     0          
O701     O      0.734600000000     0.265400000000     0.261300000000     0          
O702     O      0.774200000000     0.225800000000     0.739200000000     0          
O703     O      0.725700000000     0.274300000000     0.728500000000     0          
Zr704    Zr     0.282120000000     0.717880000000     0.395630000000     0          
Zr705    Zr     0.208710000000     0.791290000000     0.396110000000     0          
O706     O      0.163100000000     0.836900000000     0.430700000000     0          
C707     C      0.105920000000     0.894080000000     0.428470000000     0          
H708     H      0.115900000000     0.884100000000     0.379600000000     0          
C709     C      0.076580000000     0.923420000000     0.428470000000     0          
H710     H      0.066600000000     0.933400000000     0.379600000000     0          
Zr711    Zr     0.782120000000     0.782120000000     0.895630000000     0          
Zr712    Zr     0.708710000000     0.708710000000     0.896110000000     0          
O713     O      0.663100000000     0.663100000000     0.930700000000     0          
C714     C      0.605920000000     0.605920000000     0.928470000000     0          
H715     H      0.615900000000     0.615900000000     0.879600000000     0          
C716     C      0.576580000000     0.576580000000     0.928470000000     0          
H717     H      0.566600000000     0.566600000000     0.879600000000     0          
Zr718    Zr     0.217880000000     0.217880000000     0.895630000000     0          
Zr719    Zr     0.291290000000     0.291290000000     0.896110000000     0          
O720     O      0.336900000000     0.336900000000     0.930700000000     0          
C721     C      0.394080000000     0.394080000000     0.928470000000     0          
H722     H      0.384100000000     0.384100000000     0.879600000000     0          
C723     C      0.423420000000     0.423420000000     0.928470000000     0          
H724     H      0.433400000000     0.433400000000     0.879600000000     0          
C725     C      0.652500000000     0.652500000000     0.000000000000     0          
C726     C      0.620600000000     0.620600000000     0.000000000000     0          
C727     C      0.561900000000     0.561900000000     0.000000000000     0          
C728     C      0.530100000000     0.530100000000     0.000000000000     0          
C729     C      0.347500000000     0.347500000000     0.000000000000     0          
C730     C      0.379400000000     0.379400000000     0.000000000000     0          
C731     C      0.438100000000     0.438100000000     0.000000000000     0          
C732     C      0.469900000000     0.469900000000     0.000000000000     0          
C733     C      0.847500000000     0.152500000000     0.500000000000     0          
C734     C      0.879400000000     0.120600000000     0.500000000000     0          
C735     C      0.938100000000     0.061900000000     0.500000000000     0          
C736     C      0.969900000000     0.030100000000     0.500000000000     0          
C737     C      0.152500000000     0.847500000000     0.500000000000     0          
C738     C      0.120600000000     0.879400000000     0.500000000000     0          
C739     C      0.061900000000     0.938100000000     0.500000000000     0          
C740     C      0.030100000000     0.969900000000     0.500000000000     0          
H741     H      0.801150000000     0.801150000000     0.500000000000     0          
H742     H      0.198850000000     0.198850000000     0.500000000000     0          
H743     H      0.698850000000     0.301150000000     0.000000000000     0          
H744     H      0.301150000000     0.698850000000     0.000000000000     0          


