data_FEVWOV

_audit_creation_method RASPA-1.0
_audit_creation_date 2020-11-2
_audit_author_name 'Rocio Bueno-Perez'

_cell_length_a    28.1693
_cell_length_b    28.1693
_cell_length_c    28.1693
_cell_angle_alpha 90
_cell_angle_beta  90
_cell_angle_gamma 90
_cell_volume      22352.6

_symmetry_cell_setting          triclinic
_symmetry_space_group_name_Hall 'P 1'
_symmetry_space_group_name_H-M  'P 1'
_symmetry_Int_Tables_number     1

_symmetry_equiv_pos_as_xyz 'x,y,z'

loop_
_atom_site_label
_atom_site_type_symbol
_atom_site_fract_x
_atom_site_fract_y
_atom_site_fract_z
_atom_site_charge
H1       H      0.231340000000     0.722580000000     0.604080000000     0          
H2       H      0.254950000000     0.772670000000     0.616750000000     0          
H3       H      0.283410000000     0.735050000000     0.585100000000     0          
H4       H      0.731340000000     0.222580000000     0.104080000000     0          
H5       H      0.754950000000     0.272670000000     0.116750000000     0          
H6       H      0.783410000000     0.235050000000     0.085100000000     0          
H7       H      0.231340000000     0.277420000000     0.395920000000     0          
H8       H      0.254950000000     0.227330000000     0.383250000000     0          
H9       H      0.283410000000     0.264950000000     0.414900000000     0          
H10      H      0.731340000000     0.777420000000     0.895920000000     0          
H11      H      0.754950000000     0.727330000000     0.883250000000     0          
H12      H      0.783410000000     0.764950000000     0.914900000000     0          
H13      H      0.777420000000     0.104080000000     0.268660000000     0          
H14      H      0.727330000000     0.116750000000     0.245050000000     0          
H15      H      0.764950000000     0.085100000000     0.216590000000     0          
H16      H      0.722580000000     0.604080000000     0.231340000000     0          
H17      H      0.772670000000     0.616750000000     0.254950000000     0          
H18      H      0.735050000000     0.585100000000     0.283410000000     0          
H19      H      0.222580000000     0.104080000000     0.731340000000     0          
H20      H      0.272670000000     0.116750000000     0.754950000000     0          
H21      H      0.235050000000     0.085100000000     0.783410000000     0          
H22      H      0.722580000000     0.395920000000     0.768660000000     0          
H23      H      0.772670000000     0.383250000000     0.745050000000     0          
H24      H      0.735050000000     0.414900000000     0.716590000000     0          
H25      H      0.277420000000     0.768660000000     0.395920000000     0          
H26      H      0.227330000000     0.745050000000     0.383250000000     0          
H27      H      0.264950000000     0.716590000000     0.414900000000     0          
H28      H      0.722580000000     0.231340000000     0.395920000000     0          
H29      H      0.772670000000     0.254950000000     0.383250000000     0          
H30      H      0.735050000000     0.283410000000     0.414900000000     0          
H31      H      0.222580000000     0.731340000000     0.895920000000     0          
H32      H      0.272670000000     0.754950000000     0.883250000000     0          
H33      H      0.235050000000     0.783410000000     0.914900000000     0          
H34      H      0.277420000000     0.231340000000     0.604080000000     0          
H35      H      0.227330000000     0.254950000000     0.616750000000     0          
H36      H      0.264950000000     0.283410000000     0.585100000000     0          
H37      H      0.777420000000     0.731340000000     0.104080000000     0          
H38      H      0.727330000000     0.754950000000     0.116750000000     0          
H39      H      0.764950000000     0.783410000000     0.085100000000     0          
H40      H      0.722580000000     0.768660000000     0.604080000000     0          
H41      H      0.772670000000     0.745050000000     0.616750000000     0          
H42      H      0.735050000000     0.716590000000     0.585100000000     0          
H43      H      0.222580000000     0.268660000000     0.104080000000     0          
H44      H      0.272670000000     0.245050000000     0.116750000000     0          
H45      H      0.235050000000     0.216590000000     0.085100000000     0          
H46      H      0.268660000000     0.104080000000     0.222580000000     0          
H47      H      0.245050000000     0.116750000000     0.272670000000     0          
H48      H      0.216590000000     0.085100000000     0.235050000000     0          
H49      H      0.231340000000     0.604080000000     0.277420000000     0          
H50      H      0.254950000000     0.616750000000     0.227330000000     0          
H51      H      0.283410000000     0.585100000000     0.264950000000     0          
H52      H      0.731340000000     0.895920000000     0.222580000000     0          
H53      H      0.754950000000     0.883250000000     0.272670000000     0          
H54      H      0.783410000000     0.914900000000     0.235050000000     0          
H55      H      0.604080000000     0.722580000000     0.768660000000     0          
H56      H      0.616750000000     0.772670000000     0.745050000000     0          
H57      H      0.585100000000     0.735050000000     0.716590000000     0          
H58      H      0.395920000000     0.277420000000     0.768660000000     0          
H59      H      0.383250000000     0.227330000000     0.745050000000     0          
H60      H      0.414900000000     0.264950000000     0.716590000000     0          
H61      H      0.895920000000     0.777420000000     0.268660000000     0          
H62      H      0.883250000000     0.727330000000     0.245050000000     0          
H63      H      0.914900000000     0.764950000000     0.216590000000     0          
H64      H      0.395920000000     0.722580000000     0.231340000000     0          
H65      H      0.383250000000     0.772670000000     0.254950000000     0          
H66      H      0.414900000000     0.735050000000     0.283410000000     0          
H67      H      0.731340000000     0.222580000000     0.895920000000     0          
H68      H      0.754950000000     0.272670000000     0.883250000000     0          
H69      H      0.783410000000     0.235050000000     0.914900000000     0          
H70      H      0.895920000000     0.268660000000     0.777420000000     0          
H71      H      0.883250000000     0.245050000000     0.727330000000     0          
H72      H      0.914900000000     0.216590000000     0.764950000000     0          
H73      H      0.104080000000     0.268660000000     0.222580000000     0          
H74      H      0.116750000000     0.245050000000     0.272670000000     0          
H75      H      0.085100000000     0.216590000000     0.235050000000     0          
H76      H      0.604080000000     0.231340000000     0.277420000000     0          
H77      H      0.616750000000     0.254950000000     0.227330000000     0          
H78      H      0.585100000000     0.283410000000     0.264950000000     0          
H79      H      0.104080000000     0.731340000000     0.777420000000     0          
H80      H      0.116750000000     0.754950000000     0.727330000000     0          
H81      H      0.085100000000     0.783410000000     0.764950000000     0          
H82      H      0.722580000000     0.395920000000     0.231340000000     0          
H83      H      0.772670000000     0.383250000000     0.254950000000     0          
H84      H      0.735050000000     0.414900000000     0.283410000000     0          
H85      H      0.222580000000     0.895920000000     0.731340000000     0          
H86      H      0.272670000000     0.883250000000     0.754950000000     0          
H87      H      0.235050000000     0.914900000000     0.783410000000     0          
H88      H      0.277420000000     0.395920000000     0.768660000000     0          
H89      H      0.227330000000     0.383250000000     0.745050000000     0          
H90      H      0.264950000000     0.414900000000     0.716590000000     0          
H91      H      0.722580000000     0.604080000000     0.768660000000     0          
H92      H      0.772670000000     0.616750000000     0.745050000000     0          
H93      H      0.735050000000     0.585100000000     0.716590000000     0          
H94      H      0.777420000000     0.104080000000     0.731340000000     0          
H95      H      0.727330000000     0.116750000000     0.754950000000     0          
H96      H      0.764950000000     0.085100000000     0.783410000000     0          
H97      H      0.722580000000     0.231340000000     0.604080000000     0          
H98      H      0.772670000000     0.254950000000     0.616750000000     0          
H99      H      0.735050000000     0.283410000000     0.585100000000     0          
H100     H      0.222580000000     0.731340000000     0.104080000000     0          
H101     H      0.272670000000     0.754950000000     0.116750000000     0          
H102     H      0.235050000000     0.783410000000     0.085100000000     0          
H103     H      0.722580000000     0.768660000000     0.395920000000     0          
H104     H      0.772670000000     0.745050000000     0.383250000000     0          
H105     H      0.735050000000     0.716590000000     0.414900000000     0          
H106     H      0.222580000000     0.268660000000     0.895920000000     0          
H107     H      0.272670000000     0.245050000000     0.883250000000     0          
H108     H      0.235050000000     0.216590000000     0.914900000000     0          
H109     H      0.231340000000     0.395920000000     0.277420000000     0          
H110     H      0.254950000000     0.383250000000     0.227330000000     0          
H111     H      0.283410000000     0.414900000000     0.264950000000     0          
H112     H      0.731340000000     0.895920000000     0.777420000000     0          
H113     H      0.754950000000     0.883250000000     0.727330000000     0          
H114     H      0.783410000000     0.914900000000     0.764950000000     0          
H115     H      0.268660000000     0.895920000000     0.222580000000     0          
H116     H      0.245050000000     0.883250000000     0.272670000000     0          
H117     H      0.216590000000     0.914900000000     0.235050000000     0          
H118     H      0.231340000000     0.604080000000     0.722580000000     0          
H119     H      0.254950000000     0.616750000000     0.772670000000     0          
H120     H      0.283410000000     0.585100000000     0.735050000000     0          
H121     H      0.395920000000     0.722580000000     0.768660000000     0          
H122     H      0.383250000000     0.772670000000     0.745050000000     0          
H123     H      0.414900000000     0.735050000000     0.716590000000     0          
H124     H      0.895920000000     0.222580000000     0.268660000000     0          
H125     H      0.883250000000     0.272670000000     0.245050000000     0          
H126     H      0.914900000000     0.235050000000     0.216590000000     0          
H127     H      0.395920000000     0.277420000000     0.231340000000     0          
H128     H      0.383250000000     0.227330000000     0.254950000000     0          
H129     H      0.414900000000     0.264950000000     0.283410000000     0          
H130     H      0.895920000000     0.777420000000     0.731340000000     0          
H131     H      0.883250000000     0.727330000000     0.754950000000     0          
H132     H      0.914900000000     0.764950000000     0.783410000000     0          
H133     H      0.604080000000     0.722580000000     0.231340000000     0          
H134     H      0.616750000000     0.772670000000     0.254950000000     0          
H135     H      0.585100000000     0.735050000000     0.283410000000     0          
H136     H      0.104080000000     0.222580000000     0.731340000000     0          
H137     H      0.116750000000     0.272670000000     0.754950000000     0          
H138     H      0.085100000000     0.235050000000     0.783410000000     0          
H139     H      0.604080000000     0.277420000000     0.768660000000     0          
H140     H      0.616750000000     0.227330000000     0.745050000000     0          
H141     H      0.585100000000     0.264950000000     0.716590000000     0          
H142     H      0.104080000000     0.777420000000     0.268660000000     0          
H143     H      0.116750000000     0.727330000000     0.245050000000     0          
H144     H      0.085100000000     0.764950000000     0.216590000000     0          
Zr145    Zr     0.500000000000     0.086950000000     0.500000000000     0          
Zr146    Zr     0.000000000000     0.586950000000     0.000000000000     0          
Zr147    Zr     0.500000000000     0.913050000000     0.500000000000     0          
Zr148    Zr     0.000000000000     0.413050000000     0.000000000000     0          
Zr149    Zr     0.500000000000     0.500000000000     0.086950000000     0          
Zr150    Zr     0.000000000000     0.000000000000     0.586950000000     0          
Zr151    Zr     0.500000000000     0.500000000000     0.913050000000     0          
Zr152    Zr     0.000000000000     0.000000000000     0.413050000000     0          
Zr153    Zr     0.086950000000     0.500000000000     0.500000000000     0          
Zr154    Zr     0.586950000000     0.000000000000     0.000000000000     0          
Zr155    Zr     0.913050000000     0.500000000000     0.500000000000     0          
Zr156    Zr     0.413050000000     0.000000000000     0.000000000000     0          
Zr157    Zr     0.437150000000     0.000000000000     0.437150000000     0          
Zr158    Zr     0.937150000000     0.500000000000     0.937150000000     0          
Zr159    Zr     0.562850000000     0.000000000000     0.437150000000     0          
Zr160    Zr     0.062850000000     0.500000000000     0.937150000000     0          
Zr161    Zr     0.562850000000     0.000000000000     0.562850000000     0          
Zr162    Zr     0.062850000000     0.500000000000     0.062850000000     0          
Zr163    Zr     0.437150000000     0.000000000000     0.562850000000     0          
Zr164    Zr     0.937150000000     0.500000000000     0.062850000000     0          
Zr165    Zr     0.437150000000     0.437150000000     0.000000000000     0          
Zr166    Zr     0.937150000000     0.937150000000     0.500000000000     0          
Zr167    Zr     0.437150000000     0.562850000000     0.000000000000     0          
Zr168    Zr     0.937150000000     0.062850000000     0.500000000000     0          
Zr169    Zr     0.562850000000     0.562850000000     0.000000000000     0          
Zr170    Zr     0.062850000000     0.062850000000     0.500000000000     0          
Zr171    Zr     0.562850000000     0.437150000000     0.000000000000     0          
Zr172    Zr     0.062850000000     0.937150000000     0.500000000000     0          
Zr173    Zr     0.000000000000     0.437150000000     0.437150000000     0          
Zr174    Zr     0.500000000000     0.937150000000     0.937150000000     0          
Zr175    Zr     0.000000000000     0.437150000000     0.562850000000     0          
Zr176    Zr     0.500000000000     0.937150000000     0.062850000000     0          
Zr177    Zr     0.000000000000     0.562850000000     0.562850000000     0          
Zr178    Zr     0.500000000000     0.062850000000     0.062850000000     0          
Zr179    Zr     0.000000000000     0.562850000000     0.437150000000     0          
Zr180    Zr     0.500000000000     0.062850000000     0.937150000000     0          
O181     O      0.500000000000     0.042890000000     0.437200000000     0          
O182     O      0.000000000000     0.542890000000     0.937200000000     0          
O183     O      0.500000000000     0.957110000000     0.437200000000     0          
O184     O      0.000000000000     0.457110000000     0.937200000000     0          
O185     O      0.500000000000     0.042890000000     0.562800000000     0          
O186     O      0.000000000000     0.542890000000     0.062800000000     0          
O187     O      0.500000000000     0.957110000000     0.562800000000     0          
O188     O      0.000000000000     0.457110000000     0.062800000000     0          
O189     O      0.437200000000     0.500000000000     0.042890000000     0          
O190     O      0.937200000000     0.000000000000     0.542890000000     0          
O191     O      0.437200000000     0.500000000000     0.957110000000     0          
O192     O      0.937200000000     0.000000000000     0.457110000000     0          
O193     O      0.562800000000     0.500000000000     0.042890000000     0          
O194     O      0.062800000000     0.000000000000     0.542890000000     0          
O195     O      0.562800000000     0.500000000000     0.957110000000     0          
O196     O      0.062800000000     0.000000000000     0.457110000000     0          
O197     O      0.042890000000     0.437200000000     0.500000000000     0          
O198     O      0.542890000000     0.937200000000     0.000000000000     0          
O199     O      0.957110000000     0.437200000000     0.500000000000     0          
O200     O      0.457110000000     0.937200000000     0.000000000000     0          
O201     O      0.042890000000     0.562800000000     0.500000000000     0          
O202     O      0.542890000000     0.062800000000     0.000000000000     0          
O203     O      0.957110000000     0.562800000000     0.500000000000     0          
O204     O      0.457110000000     0.062800000000     0.000000000000     0          
O205     O      0.042890000000     0.500000000000     0.562800000000     0          
O206     O      0.542890000000     0.000000000000     0.062800000000     0          
O207     O      0.957110000000     0.500000000000     0.562800000000     0          
O208     O      0.457110000000     0.000000000000     0.062800000000     0          
O209     O      0.042890000000     0.500000000000     0.437200000000     0          
O210     O      0.542890000000     0.000000000000     0.937200000000     0          
O211     O      0.957110000000     0.500000000000     0.437200000000     0          
O212     O      0.457110000000     0.000000000000     0.937200000000     0          
O213     O      0.500000000000     0.437200000000     0.957110000000     0          
O214     O      0.000000000000     0.937200000000     0.457110000000     0          
O215     O      0.500000000000     0.437200000000     0.042890000000     0          
O216     O      0.000000000000     0.937200000000     0.542890000000     0          
O217     O      0.500000000000     0.562800000000     0.957110000000     0          
O218     O      0.000000000000     0.062800000000     0.457110000000     0          
O219     O      0.500000000000     0.562800000000     0.042890000000     0          
O220     O      0.000000000000     0.062800000000     0.542890000000     0          
O221     O      0.437200000000     0.042890000000     0.500000000000     0          
O222     O      0.937200000000     0.542890000000     0.000000000000     0          
O223     O      0.437200000000     0.957110000000     0.500000000000     0          
O224     O      0.937200000000     0.457110000000     0.000000000000     0          
O225     O      0.562800000000     0.042890000000     0.500000000000     0          
O226     O      0.062800000000     0.542890000000     0.000000000000     0          
O227     O      0.562800000000     0.957110000000     0.500000000000     0          
O228     O      0.062800000000     0.457110000000     0.000000000000     0          
O229     O      0.547770000000     0.126860000000     0.547770000000     0          
O230     O      0.588110000000     0.070720000000     0.588110000000     0          
C231     C      0.676520000000     0.262700000000     0.676520000000     0          
C232     C      0.652160000000     0.222400000000     0.652160000000     0          
C233     C      0.661830000000     0.175500000000     0.661830000000     0          
H234     H      0.684970000000     0.167360000000     0.684970000000     0          
C235     C      0.637700000000     0.140300000000     0.637700000000     0          
H236     H      0.644560000000     0.107950000000     0.644560000000     0          
C237     C      0.604090000000     0.151000000000     0.604090000000     0          
C238     C      0.594100000000     0.197700000000     0.594100000000     0          
H239     H      0.570940000000     0.205770000000     0.570940000000     0          
C240     C      0.618800000000     0.232900000000     0.618800000000     0          
H241     H      0.612040000000     0.265290000000     0.612040000000     0          
C242     C      0.577700000000     0.113600000000     0.577700000000     0          
O243     O      0.047770000000     0.626860000000     0.047770000000     0          
O244     O      0.088110000000     0.570720000000     0.088110000000     0          
C245     C      0.176520000000     0.762700000000     0.176520000000     0          
C246     C      0.152160000000     0.722400000000     0.152160000000     0          
C247     C      0.161830000000     0.675500000000     0.161830000000     0          
H248     H      0.184970000000     0.667360000000     0.184970000000     0          
C249     C      0.137700000000     0.640300000000     0.137700000000     0          
H250     H      0.144560000000     0.607950000000     0.144560000000     0          
C251     C      0.104090000000     0.651000000000     0.104090000000     0          
C252     C      0.094100000000     0.697700000000     0.094100000000     0          
H253     H      0.070940000000     0.705770000000     0.070940000000     0          
C254     C      0.118800000000     0.732900000000     0.118800000000     0          
H255     H      0.112040000000     0.765290000000     0.112040000000     0          
C256     C      0.077700000000     0.613600000000     0.077700000000     0          
O257     O      0.452230000000     0.873140000000     0.547770000000     0          
O258     O      0.411890000000     0.929280000000     0.588110000000     0          
C259     C      0.323480000000     0.737300000000     0.676520000000     0          
C260     C      0.347840000000     0.777600000000     0.652160000000     0          
C261     C      0.338170000000     0.824500000000     0.661830000000     0          
H262     H      0.315030000000     0.832640000000     0.684970000000     0          
C263     C      0.362300000000     0.859700000000     0.637700000000     0          
H264     H      0.355440000000     0.892050000000     0.644560000000     0          
C265     C      0.395910000000     0.849000000000     0.604090000000     0          
C266     C      0.405900000000     0.802300000000     0.594100000000     0          
H267     H      0.429060000000     0.794230000000     0.570940000000     0          
C268     C      0.381200000000     0.767100000000     0.618800000000     0          
H269     H      0.387960000000     0.734710000000     0.612040000000     0          
C270     C      0.422300000000     0.886400000000     0.577700000000     0          
O271     O      0.952230000000     0.373140000000     0.047770000000     0          
O272     O      0.911890000000     0.429280000000     0.088110000000     0          
C273     C      0.823480000000     0.237300000000     0.176520000000     0          
C274     C      0.847840000000     0.277600000000     0.152160000000     0          
C275     C      0.838170000000     0.324500000000     0.161830000000     0          
H276     H      0.815030000000     0.332640000000     0.184970000000     0          
C277     C      0.862300000000     0.359700000000     0.137700000000     0          
H278     H      0.855440000000     0.392050000000     0.144560000000     0          
C279     C      0.895910000000     0.349000000000     0.104090000000     0          
C280     C      0.905900000000     0.302300000000     0.094100000000     0          
H281     H      0.929060000000     0.294230000000     0.070940000000     0          
C282     C      0.881200000000     0.267100000000     0.118800000000     0          
H283     H      0.887960000000     0.234710000000     0.112040000000     0          
C284     C      0.922300000000     0.386400000000     0.077700000000     0          
O285     O      0.452230000000     0.126860000000     0.452230000000     0          
O286     O      0.411890000000     0.070720000000     0.411890000000     0          
C287     C      0.323480000000     0.262700000000     0.323480000000     0          
C288     C      0.347840000000     0.222400000000     0.347840000000     0          
C289     C      0.338170000000     0.175500000000     0.338170000000     0          
H290     H      0.315030000000     0.167360000000     0.315030000000     0          
C291     C      0.362300000000     0.140300000000     0.362300000000     0          
H292     H      0.355440000000     0.107950000000     0.355440000000     0          
C293     C      0.395910000000     0.151000000000     0.395910000000     0          
C294     C      0.405900000000     0.197700000000     0.405900000000     0          
H295     H      0.429060000000     0.205770000000     0.429060000000     0          
C296     C      0.381200000000     0.232900000000     0.381200000000     0          
H297     H      0.387960000000     0.265290000000     0.387960000000     0          
C298     C      0.422300000000     0.113600000000     0.422300000000     0          
O299     O      0.952230000000     0.626860000000     0.952230000000     0          
O300     O      0.911890000000     0.570720000000     0.911890000000     0          
C301     C      0.823480000000     0.762700000000     0.823480000000     0          
C302     C      0.847840000000     0.722400000000     0.847840000000     0          
C303     C      0.838170000000     0.675500000000     0.838170000000     0          
H304     H      0.815030000000     0.667360000000     0.815030000000     0          
C305     C      0.862300000000     0.640300000000     0.862300000000     0          
H306     H      0.855440000000     0.607950000000     0.855440000000     0          
C307     C      0.895910000000     0.651000000000     0.895910000000     0          
C308     C      0.905900000000     0.697700000000     0.905900000000     0          
H309     H      0.929060000000     0.705770000000     0.929060000000     0          
C310     C      0.881200000000     0.732900000000     0.881200000000     0          
H311     H      0.887960000000     0.765290000000     0.887960000000     0          
C312     C      0.922300000000     0.613600000000     0.922300000000     0          
O313     O      0.547770000000     0.873140000000     0.452230000000     0          
O314     O      0.588110000000     0.929280000000     0.411890000000     0          
C315     C      0.676520000000     0.737300000000     0.323480000000     0          
C316     C      0.652160000000     0.777600000000     0.347840000000     0          
C317     C      0.661830000000     0.824500000000     0.338170000000     0          
H318     H      0.684970000000     0.832640000000     0.315030000000     0          
C319     C      0.637700000000     0.859700000000     0.362300000000     0          
H320     H      0.644560000000     0.892050000000     0.355440000000     0          
C321     C      0.604090000000     0.849000000000     0.395910000000     0          
C322     C      0.594100000000     0.802300000000     0.405900000000     0          
H323     H      0.570940000000     0.794230000000     0.429060000000     0          
C324     C      0.618800000000     0.767100000000     0.381200000000     0          
H325     H      0.612040000000     0.734710000000     0.387960000000     0          
C326     C      0.577700000000     0.886400000000     0.422300000000     0          
O327     O      0.047770000000     0.373140000000     0.952230000000     0          
O328     O      0.088110000000     0.429280000000     0.911890000000     0          
C329     C      0.176520000000     0.237300000000     0.823480000000     0          
C330     C      0.152160000000     0.277600000000     0.847840000000     0          
C331     C      0.161830000000     0.324500000000     0.838170000000     0          
H332     H      0.184970000000     0.332640000000     0.815030000000     0          
C333     C      0.137700000000     0.359700000000     0.862300000000     0          
H334     H      0.144560000000     0.392050000000     0.855440000000     0          
C335     C      0.104090000000     0.349000000000     0.895910000000     0          
C336     C      0.094100000000     0.302300000000     0.905900000000     0          
H337     H      0.070940000000     0.294230000000     0.929060000000     0          
C338     C      0.118800000000     0.267100000000     0.881200000000     0          
H339     H      0.112040000000     0.234710000000     0.887960000000     0          
C340     C      0.077700000000     0.386400000000     0.922300000000     0          
O341     O      0.547770000000     0.547770000000     0.126860000000     0          
O342     O      0.588110000000     0.588110000000     0.070720000000     0          
C343     C      0.676520000000     0.676520000000     0.262700000000     0          
C344     C      0.652160000000     0.652160000000     0.222400000000     0          
C345     C      0.661830000000     0.661830000000     0.175500000000     0          
H346     H      0.684970000000     0.684970000000     0.167360000000     0          
C347     C      0.637700000000     0.637700000000     0.140300000000     0          
H348     H      0.644560000000     0.644560000000     0.107950000000     0          
C349     C      0.604090000000     0.604090000000     0.151000000000     0          
C350     C      0.594100000000     0.594100000000     0.197700000000     0          
H351     H      0.570940000000     0.570940000000     0.205770000000     0          
C352     C      0.618800000000     0.618800000000     0.232900000000     0          
H353     H      0.612040000000     0.612040000000     0.265290000000     0          
C354     C      0.577700000000     0.577700000000     0.113600000000     0          
O355     O      0.047770000000     0.047770000000     0.626860000000     0          
O356     O      0.088110000000     0.088110000000     0.570720000000     0          
C357     C      0.176520000000     0.176520000000     0.762700000000     0          
C358     C      0.152160000000     0.152160000000     0.722400000000     0          
C359     C      0.161830000000     0.161830000000     0.675500000000     0          
H360     H      0.184970000000     0.184970000000     0.667360000000     0          
C361     C      0.137700000000     0.137700000000     0.640300000000     0          
H362     H      0.144560000000     0.144560000000     0.607950000000     0          
C363     C      0.104090000000     0.104090000000     0.651000000000     0          
C364     C      0.094100000000     0.094100000000     0.697700000000     0          
H365     H      0.070940000000     0.070940000000     0.705770000000     0          
C366     C      0.118800000000     0.118800000000     0.732900000000     0          
H367     H      0.112040000000     0.112040000000     0.765290000000     0          
C368     C      0.077700000000     0.077700000000     0.613600000000     0          
O369     O      0.547770000000     0.452230000000     0.873140000000     0          
O370     O      0.588110000000     0.411890000000     0.929280000000     0          
C371     C      0.676520000000     0.323480000000     0.737300000000     0          
C372     C      0.652160000000     0.347840000000     0.777600000000     0          
C373     C      0.661830000000     0.338170000000     0.824500000000     0          
H374     H      0.684970000000     0.315030000000     0.832640000000     0          
C375     C      0.637700000000     0.362300000000     0.859700000000     0          
H376     H      0.644560000000     0.355440000000     0.892050000000     0          
C377     C      0.604090000000     0.395910000000     0.849000000000     0          
C378     C      0.594100000000     0.405900000000     0.802300000000     0          
H379     H      0.570940000000     0.429060000000     0.794230000000     0          
C380     C      0.618800000000     0.381200000000     0.767100000000     0          
H381     H      0.612040000000     0.387960000000     0.734710000000     0          
C382     C      0.577700000000     0.422300000000     0.886400000000     0          
O383     O      0.047770000000     0.952230000000     0.373140000000     0          
O384     O      0.088110000000     0.911890000000     0.429280000000     0          
C385     C      0.176520000000     0.823480000000     0.237300000000     0          
C386     C      0.152160000000     0.847840000000     0.277600000000     0          
C387     C      0.161830000000     0.838170000000     0.324500000000     0          
H388     H      0.184970000000     0.815030000000     0.332640000000     0          
C389     C      0.137700000000     0.862300000000     0.359700000000     0          
H390     H      0.144560000000     0.855440000000     0.392050000000     0          
C391     C      0.104090000000     0.895910000000     0.349000000000     0          
C392     C      0.094100000000     0.905900000000     0.302300000000     0          
H393     H      0.070940000000     0.929060000000     0.294230000000     0          
C394     C      0.118800000000     0.881200000000     0.267100000000     0          
H395     H      0.112040000000     0.887960000000     0.234710000000     0          
C396     C      0.077700000000     0.922300000000     0.386400000000     0          
O397     O      0.452230000000     0.452230000000     0.126860000000     0          
O398     O      0.411890000000     0.411890000000     0.070720000000     0          
C399     C      0.323480000000     0.323480000000     0.262700000000     0          
C400     C      0.347840000000     0.347840000000     0.222400000000     0          
C401     C      0.338170000000     0.338170000000     0.175500000000     0          
H402     H      0.315030000000     0.315030000000     0.167360000000     0          
C403     C      0.362300000000     0.362300000000     0.140300000000     0          
H404     H      0.355440000000     0.355440000000     0.107950000000     0          
C405     C      0.395910000000     0.395910000000     0.151000000000     0          
C406     C      0.405900000000     0.405900000000     0.197700000000     0          
H407     H      0.429060000000     0.429060000000     0.205770000000     0          
C408     C      0.381200000000     0.381200000000     0.232900000000     0          
H409     H      0.387960000000     0.387960000000     0.265290000000     0          
C410     C      0.422300000000     0.422300000000     0.113600000000     0          
O411     O      0.952230000000     0.952230000000     0.626860000000     0          
O412     O      0.911890000000     0.911890000000     0.570720000000     0          
C413     C      0.823480000000     0.823480000000     0.762700000000     0          
C414     C      0.847840000000     0.847840000000     0.722400000000     0          
C415     C      0.838170000000     0.838170000000     0.675500000000     0          
H416     H      0.815030000000     0.815030000000     0.667360000000     0          
C417     C      0.862300000000     0.862300000000     0.640300000000     0          
H418     H      0.855440000000     0.855440000000     0.607950000000     0          
C419     C      0.895910000000     0.895910000000     0.651000000000     0          
C420     C      0.905900000000     0.905900000000     0.697700000000     0          
H421     H      0.929060000000     0.929060000000     0.705770000000     0          
C422     C      0.881200000000     0.881200000000     0.732900000000     0          
H423     H      0.887960000000     0.887960000000     0.765290000000     0          
C424     C      0.922300000000     0.922300000000     0.613600000000     0          
O425     O      0.452230000000     0.547770000000     0.873140000000     0          
O426     O      0.411890000000     0.588110000000     0.929280000000     0          
C427     C      0.323480000000     0.676520000000     0.737300000000     0          
C428     C      0.347840000000     0.652160000000     0.777600000000     0          
C429     C      0.338170000000     0.661830000000     0.824500000000     0          
H430     H      0.315030000000     0.684970000000     0.832640000000     0          
C431     C      0.362300000000     0.637700000000     0.859700000000     0          
H432     H      0.355440000000     0.644560000000     0.892050000000     0          
C433     C      0.395910000000     0.604090000000     0.849000000000     0          
C434     C      0.405900000000     0.594100000000     0.802300000000     0          
H435     H      0.429060000000     0.570940000000     0.794230000000     0          
C436     C      0.381200000000     0.618800000000     0.767100000000     0          
H437     H      0.387960000000     0.612040000000     0.734710000000     0          
C438     C      0.422300000000     0.577700000000     0.886400000000     0          
O439     O      0.952230000000     0.047770000000     0.373140000000     0          
O440     O      0.911890000000     0.088110000000     0.429280000000     0          
C441     C      0.823480000000     0.176520000000     0.237300000000     0          
C442     C      0.847840000000     0.152160000000     0.277600000000     0          
C443     C      0.838170000000     0.161830000000     0.324500000000     0          
H444     H      0.815030000000     0.184970000000     0.332640000000     0          
C445     C      0.862300000000     0.137700000000     0.359700000000     0          
H446     H      0.855440000000     0.144560000000     0.392050000000     0          
C447     C      0.895910000000     0.104090000000     0.349000000000     0          
C448     C      0.905900000000     0.094100000000     0.302300000000     0          
H449     H      0.929060000000     0.070940000000     0.294230000000     0          
C450     C      0.881200000000     0.118800000000     0.267100000000     0          
H451     H      0.887960000000     0.112040000000     0.234710000000     0          
C452     C      0.922300000000     0.077700000000     0.386400000000     0          
O453     O      0.126860000000     0.547770000000     0.547770000000     0          
O454     O      0.070720000000     0.588110000000     0.588110000000     0          
C455     C      0.262700000000     0.676520000000     0.676520000000     0          
C456     C      0.222400000000     0.652160000000     0.652160000000     0          
C457     C      0.175500000000     0.661830000000     0.661830000000     0          
H458     H      0.167360000000     0.684970000000     0.684970000000     0          
C459     C      0.140300000000     0.637700000000     0.637700000000     0          
H460     H      0.107950000000     0.644560000000     0.644560000000     0          
C461     C      0.151000000000     0.604090000000     0.604090000000     0          
C462     C      0.197700000000     0.594100000000     0.594100000000     0          
H463     H      0.205770000000     0.570940000000     0.570940000000     0          
C464     C      0.232900000000     0.618800000000     0.618800000000     0          
H465     H      0.265290000000     0.612040000000     0.612040000000     0          
C466     C      0.113600000000     0.577700000000     0.577700000000     0          
O467     O      0.626860000000     0.047770000000     0.047770000000     0          
O468     O      0.570720000000     0.088110000000     0.088110000000     0          
C469     C      0.762700000000     0.176520000000     0.176520000000     0          
C470     C      0.722400000000     0.152160000000     0.152160000000     0          
C471     C      0.675500000000     0.161830000000     0.161830000000     0          
H472     H      0.667360000000     0.184970000000     0.184970000000     0          
C473     C      0.640300000000     0.137700000000     0.137700000000     0          
H474     H      0.607950000000     0.144560000000     0.144560000000     0          
C475     C      0.651000000000     0.104090000000     0.104090000000     0          
C476     C      0.697700000000     0.094100000000     0.094100000000     0          
H477     H      0.705770000000     0.070940000000     0.070940000000     0          
C478     C      0.732900000000     0.118800000000     0.118800000000     0          
H479     H      0.765290000000     0.112040000000     0.112040000000     0          
C480     C      0.613600000000     0.077700000000     0.077700000000     0          
O481     O      0.873140000000     0.547770000000     0.452230000000     0          
O482     O      0.929280000000     0.588110000000     0.411890000000     0          
C483     C      0.737300000000     0.676520000000     0.323480000000     0          
C484     C      0.777600000000     0.652160000000     0.347840000000     0          
C485     C      0.824500000000     0.661830000000     0.338170000000     0          
H486     H      0.832640000000     0.684970000000     0.315030000000     0          
C487     C      0.859700000000     0.637700000000     0.362300000000     0          
H488     H      0.892050000000     0.644560000000     0.355440000000     0          
C489     C      0.849000000000     0.604090000000     0.395910000000     0          
C490     C      0.802300000000     0.594100000000     0.405900000000     0          
H491     H      0.794230000000     0.570940000000     0.429060000000     0          
C492     C      0.767100000000     0.618800000000     0.381200000000     0          
H493     H      0.734710000000     0.612040000000     0.387960000000     0          
C494     C      0.886400000000     0.577700000000     0.422300000000     0          
O495     O      0.373140000000     0.047770000000     0.952230000000     0          
O496     O      0.429280000000     0.088110000000     0.911890000000     0          
C497     C      0.237300000000     0.176520000000     0.823480000000     0          
C498     C      0.277600000000     0.152160000000     0.847840000000     0          
C499     C      0.324500000000     0.161830000000     0.838170000000     0          
H500     H      0.332640000000     0.184970000000     0.815030000000     0          
C501     C      0.359700000000     0.137700000000     0.862300000000     0          
H502     H      0.392050000000     0.144560000000     0.855440000000     0          
C503     C      0.349000000000     0.104090000000     0.895910000000     0          
C504     C      0.302300000000     0.094100000000     0.905900000000     0          
H505     H      0.294230000000     0.070940000000     0.929060000000     0          
C506     C      0.267100000000     0.118800000000     0.881200000000     0          
H507     H      0.234710000000     0.112040000000     0.887960000000     0          
C508     C      0.386400000000     0.077700000000     0.922300000000     0          
O509     O      0.126860000000     0.452230000000     0.452230000000     0          
O510     O      0.070720000000     0.411890000000     0.411890000000     0          
C511     C      0.262700000000     0.323480000000     0.323480000000     0          
C512     C      0.222400000000     0.347840000000     0.347840000000     0          
C513     C      0.175500000000     0.338170000000     0.338170000000     0          
H514     H      0.167360000000     0.315030000000     0.315030000000     0          
C515     C      0.140300000000     0.362300000000     0.362300000000     0          
H516     H      0.107950000000     0.355440000000     0.355440000000     0          
C517     C      0.151000000000     0.395910000000     0.395910000000     0          
C518     C      0.197700000000     0.405900000000     0.405900000000     0          
H519     H      0.205770000000     0.429060000000     0.429060000000     0          
C520     C      0.232900000000     0.381200000000     0.381200000000     0          
H521     H      0.265290000000     0.387960000000     0.387960000000     0          
C522     C      0.113600000000     0.422300000000     0.422300000000     0          
O523     O      0.626860000000     0.952230000000     0.952230000000     0          
O524     O      0.570720000000     0.911890000000     0.911890000000     0          
C525     C      0.762700000000     0.823480000000     0.823480000000     0          
C526     C      0.722400000000     0.847840000000     0.847840000000     0          
C527     C      0.675500000000     0.838170000000     0.838170000000     0          
H528     H      0.667360000000     0.815030000000     0.815030000000     0          
C529     C      0.640300000000     0.862300000000     0.862300000000     0          
H530     H      0.607950000000     0.855440000000     0.855440000000     0          
C531     C      0.651000000000     0.895910000000     0.895910000000     0          
C532     C      0.697700000000     0.905900000000     0.905900000000     0          
H533     H      0.705770000000     0.929060000000     0.929060000000     0          
C534     C      0.732900000000     0.881200000000     0.881200000000     0          
H535     H      0.765290000000     0.887960000000     0.887960000000     0          
C536     C      0.613600000000     0.922300000000     0.922300000000     0          
O537     O      0.873140000000     0.452230000000     0.547770000000     0          
O538     O      0.929280000000     0.411890000000     0.588110000000     0          
C539     C      0.737300000000     0.323480000000     0.676520000000     0          
C540     C      0.777600000000     0.347840000000     0.652160000000     0          
C541     C      0.824500000000     0.338170000000     0.661830000000     0          
H542     H      0.832640000000     0.315030000000     0.684970000000     0          
C543     C      0.859700000000     0.362300000000     0.637700000000     0          
H544     H      0.892050000000     0.355440000000     0.644560000000     0          
C545     C      0.849000000000     0.395910000000     0.604090000000     0          
C546     C      0.802300000000     0.405900000000     0.594100000000     0          
H547     H      0.794230000000     0.429060000000     0.570940000000     0          
C548     C      0.767100000000     0.381200000000     0.618800000000     0          
H549     H      0.734710000000     0.387960000000     0.612040000000     0          
C550     C      0.886400000000     0.422300000000     0.577700000000     0          
O551     O      0.373140000000     0.952230000000     0.047770000000     0          
O552     O      0.429280000000     0.911890000000     0.088110000000     0          
C553     C      0.237300000000     0.823480000000     0.176520000000     0          
C554     C      0.277600000000     0.847840000000     0.152160000000     0          
C555     C      0.324500000000     0.838170000000     0.161830000000     0          
H556     H      0.332640000000     0.815030000000     0.184970000000     0          
C557     C      0.359700000000     0.862300000000     0.137700000000     0          
H558     H      0.392050000000     0.855440000000     0.144560000000     0          
C559     C      0.349000000000     0.895910000000     0.104090000000     0          
C560     C      0.302300000000     0.905900000000     0.094100000000     0          
H561     H      0.294230000000     0.929060000000     0.070940000000     0          
C562     C      0.267100000000     0.881200000000     0.118800000000     0          
H563     H      0.234710000000     0.887960000000     0.112040000000     0          
C564     C      0.386400000000     0.922300000000     0.077700000000     0          
O565     O      0.126860000000     0.547770000000     0.452230000000     0          
O566     O      0.070720000000     0.588110000000     0.411890000000     0          
C567     C      0.262700000000     0.676520000000     0.323480000000     0          
C568     C      0.222400000000     0.652160000000     0.347840000000     0          
C569     C      0.175500000000     0.661830000000     0.338170000000     0          
H570     H      0.167360000000     0.684970000000     0.315030000000     0          
C571     C      0.140300000000     0.637700000000     0.362300000000     0          
H572     H      0.107950000000     0.644560000000     0.355440000000     0          
C573     C      0.151000000000     0.604090000000     0.395910000000     0          
C574     C      0.197700000000     0.594100000000     0.405900000000     0          
H575     H      0.205770000000     0.570940000000     0.429060000000     0          
C576     C      0.232900000000     0.618800000000     0.381200000000     0          
H577     H      0.265290000000     0.612040000000     0.387960000000     0          
C578     C      0.113600000000     0.577700000000     0.422300000000     0          
O579     O      0.626860000000     0.047770000000     0.952230000000     0          
O580     O      0.570720000000     0.088110000000     0.911890000000     0          
C581     C      0.762700000000     0.176520000000     0.823480000000     0          
C582     C      0.722400000000     0.152160000000     0.847840000000     0          
C583     C      0.675500000000     0.161830000000     0.838170000000     0          
H584     H      0.667360000000     0.184970000000     0.815030000000     0          
C585     C      0.640300000000     0.137700000000     0.862300000000     0          
H586     H      0.607950000000     0.144560000000     0.855440000000     0          
C587     C      0.651000000000     0.104090000000     0.895910000000     0          
C588     C      0.697700000000     0.094100000000     0.905900000000     0          
H589     H      0.705770000000     0.070940000000     0.929060000000     0          
C590     C      0.732900000000     0.118800000000     0.881200000000     0          
H591     H      0.765290000000     0.112040000000     0.887960000000     0          
C592     C      0.613600000000     0.077700000000     0.922300000000     0          
O593     O      0.873140000000     0.452230000000     0.452230000000     0          
O594     O      0.929280000000     0.411890000000     0.411890000000     0          
C595     C      0.737300000000     0.323480000000     0.323480000000     0          
C596     C      0.777600000000     0.347840000000     0.347840000000     0          
C597     C      0.824500000000     0.338170000000     0.338170000000     0          
H598     H      0.832640000000     0.315030000000     0.315030000000     0          
C599     C      0.859700000000     0.362300000000     0.362300000000     0          
H600     H      0.892050000000     0.355440000000     0.355440000000     0          
C601     C      0.849000000000     0.395910000000     0.395910000000     0          
C602     C      0.802300000000     0.405900000000     0.405900000000     0          
H603     H      0.794230000000     0.429060000000     0.429060000000     0          
C604     C      0.767100000000     0.381200000000     0.381200000000     0          
H605     H      0.734710000000     0.387960000000     0.387960000000     0          
C606     C      0.886400000000     0.422300000000     0.422300000000     0          
O607     O      0.373140000000     0.952230000000     0.952230000000     0          
O608     O      0.429280000000     0.911890000000     0.911890000000     0          
C609     C      0.237300000000     0.823480000000     0.823480000000     0          
C610     C      0.277600000000     0.847840000000     0.847840000000     0          
C611     C      0.324500000000     0.838170000000     0.838170000000     0          
H612     H      0.332640000000     0.815030000000     0.815030000000     0          
C613     C      0.359700000000     0.862300000000     0.862300000000     0          
H614     H      0.392050000000     0.855440000000     0.855440000000     0          
C615     C      0.349000000000     0.895910000000     0.895910000000     0          
C616     C      0.302300000000     0.905900000000     0.905900000000     0          
H617     H      0.294230000000     0.929060000000     0.929060000000     0          
C618     C      0.267100000000     0.881200000000     0.881200000000     0          
H619     H      0.234710000000     0.887960000000     0.887960000000     0          
C620     C      0.386400000000     0.922300000000     0.922300000000     0          
O621     O      0.126860000000     0.452230000000     0.547770000000     0          
O622     O      0.070720000000     0.411890000000     0.588110000000     0          
C623     C      0.262700000000     0.323480000000     0.676520000000     0          
C624     C      0.222400000000     0.347840000000     0.652160000000     0          
C625     C      0.175500000000     0.338170000000     0.661830000000     0          
H626     H      0.167360000000     0.315030000000     0.684970000000     0          
C627     C      0.140300000000     0.362300000000     0.637700000000     0          
H628     H      0.107950000000     0.355440000000     0.644560000000     0          
C629     C      0.151000000000     0.395910000000     0.604090000000     0          
C630     C      0.197700000000     0.405900000000     0.594100000000     0          
H631     H      0.205770000000     0.429060000000     0.570940000000     0          
C632     C      0.232900000000     0.381200000000     0.618800000000     0          
H633     H      0.265290000000     0.387960000000     0.612040000000     0          
C634     C      0.113600000000     0.422300000000     0.577700000000     0          
O635     O      0.626860000000     0.952230000000     0.047770000000     0          
O636     O      0.570720000000     0.911890000000     0.088110000000     0          
C637     C      0.762700000000     0.823480000000     0.176520000000     0          
C638     C      0.722400000000     0.847840000000     0.152160000000     0          
C639     C      0.675500000000     0.838170000000     0.161830000000     0          
H640     H      0.667360000000     0.815030000000     0.184970000000     0          
C641     C      0.640300000000     0.862300000000     0.137700000000     0          
H642     H      0.607950000000     0.855440000000     0.144560000000     0          
C643     C      0.651000000000     0.895910000000     0.104090000000     0          
C644     C      0.697700000000     0.905900000000     0.094100000000     0          
H645     H      0.705770000000     0.929060000000     0.070940000000     0          
C646     C      0.732900000000     0.881200000000     0.118800000000     0          
H647     H      0.765290000000     0.887960000000     0.112040000000     0          
C648     C      0.613600000000     0.922300000000     0.077700000000     0          
O649     O      0.873140000000     0.547770000000     0.547770000000     0          
O650     O      0.929280000000     0.588110000000     0.588110000000     0          
C651     C      0.737300000000     0.676520000000     0.676520000000     0          
C652     C      0.777600000000     0.652160000000     0.652160000000     0          
C653     C      0.824500000000     0.661830000000     0.661830000000     0          
H654     H      0.832640000000     0.684970000000     0.684970000000     0          
C655     C      0.859700000000     0.637700000000     0.637700000000     0          
H656     H      0.892050000000     0.644560000000     0.644560000000     0          
C657     C      0.849000000000     0.604090000000     0.604090000000     0          
C658     C      0.802300000000     0.594100000000     0.594100000000     0          
H659     H      0.794230000000     0.570940000000     0.570940000000     0          
C660     C      0.767100000000     0.618800000000     0.618800000000     0          
H661     H      0.734710000000     0.612040000000     0.612040000000     0          
C662     C      0.886400000000     0.577700000000     0.577700000000     0          
O663     O      0.373140000000     0.047770000000     0.047770000000     0          
O664     O      0.429280000000     0.088110000000     0.088110000000     0          
C665     C      0.237300000000     0.176520000000     0.176520000000     0          
C666     C      0.277600000000     0.152160000000     0.152160000000     0          
C667     C      0.324500000000     0.161830000000     0.161830000000     0          
H668     H      0.332640000000     0.184970000000     0.184970000000     0          
C669     C      0.359700000000     0.137700000000     0.137700000000     0          
H670     H      0.392050000000     0.144560000000     0.144560000000     0          
C671     C      0.349000000000     0.104090000000     0.104090000000     0          
C672     C      0.302300000000     0.094100000000     0.094100000000     0          
H673     H      0.294230000000     0.070940000000     0.070940000000     0          
C674     C      0.267100000000     0.118800000000     0.118800000000     0          
H675     H      0.234710000000     0.112040000000     0.112040000000     0          
C676     C      0.386400000000     0.077700000000     0.077700000000     0          
O677     O      0.547770000000     0.547770000000     0.873140000000     0          
O678     O      0.588110000000     0.588110000000     0.929280000000     0          
C679     C      0.676520000000     0.676520000000     0.737300000000     0          
C680     C      0.652160000000     0.652160000000     0.777600000000     0          
C681     C      0.661830000000     0.661830000000     0.824500000000     0          
H682     H      0.684970000000     0.684970000000     0.832640000000     0          
C683     C      0.637700000000     0.637700000000     0.859700000000     0          
H684     H      0.644560000000     0.644560000000     0.892050000000     0          
C685     C      0.604090000000     0.604090000000     0.849000000000     0          
C686     C      0.594100000000     0.594100000000     0.802300000000     0          
H687     H      0.570940000000     0.570940000000     0.794230000000     0          
C688     C      0.618800000000     0.618800000000     0.767100000000     0          
H689     H      0.612040000000     0.612040000000     0.734710000000     0          
C690     C      0.577700000000     0.577700000000     0.886400000000     0          
O691     O      0.047770000000     0.047770000000     0.373140000000     0          
O692     O      0.088110000000     0.088110000000     0.429280000000     0          
C693     C      0.176520000000     0.176520000000     0.237300000000     0          
C694     C      0.152160000000     0.152160000000     0.277600000000     0          
C695     C      0.161830000000     0.161830000000     0.324500000000     0          
H696     H      0.184970000000     0.184970000000     0.332640000000     0          
C697     C      0.137700000000     0.137700000000     0.359700000000     0          
H698     H      0.144560000000     0.144560000000     0.392050000000     0          
C699     C      0.104090000000     0.104090000000     0.349000000000     0          
C700     C      0.094100000000     0.094100000000     0.302300000000     0          
H701     H      0.070940000000     0.070940000000     0.294230000000     0          
C702     C      0.118800000000     0.118800000000     0.267100000000     0          
H703     H      0.112040000000     0.112040000000     0.234710000000     0          
C704     C      0.077700000000     0.077700000000     0.386400000000     0          
O705     O      0.452230000000     0.547770000000     0.126860000000     0          
O706     O      0.411890000000     0.588110000000     0.070720000000     0          
C707     C      0.323480000000     0.676520000000     0.262700000000     0          
C708     C      0.347840000000     0.652160000000     0.222400000000     0          
C709     C      0.338170000000     0.661830000000     0.175500000000     0          
H710     H      0.315030000000     0.684970000000     0.167360000000     0          
C711     C      0.362300000000     0.637700000000     0.140300000000     0          
H712     H      0.355440000000     0.644560000000     0.107950000000     0          
C713     C      0.395910000000     0.604090000000     0.151000000000     0          
C714     C      0.405900000000     0.594100000000     0.197700000000     0          
H715     H      0.429060000000     0.570940000000     0.205770000000     0          
C716     C      0.381200000000     0.618800000000     0.232900000000     0          
H717     H      0.387960000000     0.612040000000     0.265290000000     0          
C718     C      0.422300000000     0.577700000000     0.113600000000     0          
O719     O      0.952230000000     0.047770000000     0.626860000000     0          
O720     O      0.911890000000     0.088110000000     0.570720000000     0          
C721     C      0.823480000000     0.176520000000     0.762700000000     0          
C722     C      0.847840000000     0.152160000000     0.722400000000     0          
C723     C      0.838170000000     0.161830000000     0.675500000000     0          
H724     H      0.815030000000     0.184970000000     0.667360000000     0          
C725     C      0.862300000000     0.137700000000     0.640300000000     0          
H726     H      0.855440000000     0.144560000000     0.607950000000     0          
C727     C      0.895910000000     0.104090000000     0.651000000000     0          
C728     C      0.905900000000     0.094100000000     0.697700000000     0          
H729     H      0.929060000000     0.070940000000     0.705770000000     0          
C730     C      0.881200000000     0.118800000000     0.732900000000     0          
H731     H      0.887960000000     0.112040000000     0.765290000000     0          
C732     C      0.922300000000     0.077700000000     0.613600000000     0          
O733     O      0.452230000000     0.452230000000     0.873140000000     0          
O734     O      0.411890000000     0.411890000000     0.929280000000     0          
C735     C      0.323480000000     0.323480000000     0.737300000000     0          
C736     C      0.347840000000     0.347840000000     0.777600000000     0          
C737     C      0.338170000000     0.338170000000     0.824500000000     0          
H738     H      0.315030000000     0.315030000000     0.832640000000     0          
C739     C      0.362300000000     0.362300000000     0.859700000000     0          
H740     H      0.355440000000     0.355440000000     0.892050000000     0          
C741     C      0.395910000000     0.395910000000     0.849000000000     0          
C742     C      0.405900000000     0.405900000000     0.802300000000     0          
H743     H      0.429060000000     0.429060000000     0.794230000000     0          
C744     C      0.381200000000     0.381200000000     0.767100000000     0          
H745     H      0.387960000000     0.387960000000     0.734710000000     0          
C746     C      0.422300000000     0.422300000000     0.886400000000     0          
O747     O      0.952230000000     0.952230000000     0.373140000000     0          
O748     O      0.911890000000     0.911890000000     0.429280000000     0          
C749     C      0.823480000000     0.823480000000     0.237300000000     0          
C750     C      0.847840000000     0.847840000000     0.277600000000     0          
C751     C      0.838170000000     0.838170000000     0.324500000000     0          
H752     H      0.815030000000     0.815030000000     0.332640000000     0          
C753     C      0.862300000000     0.862300000000     0.359700000000     0          
H754     H      0.855440000000     0.855440000000     0.392050000000     0          
C755     C      0.895910000000     0.895910000000     0.349000000000     0          
C756     C      0.905900000000     0.905900000000     0.302300000000     0          
H757     H      0.929060000000     0.929060000000     0.294230000000     0          
C758     C      0.881200000000     0.881200000000     0.267100000000     0          
H759     H      0.887960000000     0.887960000000     0.234710000000     0          
C760     C      0.922300000000     0.922300000000     0.386400000000     0          
O761     O      0.547770000000     0.452230000000     0.126860000000     0          
O762     O      0.588110000000     0.411890000000     0.070720000000     0          
C763     C      0.676520000000     0.323480000000     0.262700000000     0          
C764     C      0.652160000000     0.347840000000     0.222400000000     0          
C765     C      0.661830000000     0.338170000000     0.175500000000     0          
H766     H      0.684970000000     0.315030000000     0.167360000000     0          
C767     C      0.637700000000     0.362300000000     0.140300000000     0          
H768     H      0.644560000000     0.355440000000     0.107950000000     0          
C769     C      0.604090000000     0.395910000000     0.151000000000     0          
C770     C      0.594100000000     0.405900000000     0.197700000000     0          
H771     H      0.570940000000     0.429060000000     0.205770000000     0          
C772     C      0.618800000000     0.381200000000     0.232900000000     0          
H773     H      0.612040000000     0.387960000000     0.265290000000     0          
C774     C      0.577700000000     0.422300000000     0.113600000000     0          
O775     O      0.047770000000     0.952230000000     0.626860000000     0          
O776     O      0.088110000000     0.911890000000     0.570720000000     0          
C777     C      0.176520000000     0.823480000000     0.762700000000     0          
C778     C      0.152160000000     0.847840000000     0.722400000000     0          
C779     C      0.161830000000     0.838170000000     0.675500000000     0          
H780     H      0.184970000000     0.815030000000     0.667360000000     0          
C781     C      0.137700000000     0.862300000000     0.640300000000     0          
H782     H      0.144560000000     0.855440000000     0.607950000000     0          
C783     C      0.104090000000     0.895910000000     0.651000000000     0          
C784     C      0.094100000000     0.905900000000     0.697700000000     0          
H785     H      0.070940000000     0.929060000000     0.705770000000     0          
C786     C      0.118800000000     0.881200000000     0.732900000000     0          
H787     H      0.112040000000     0.887960000000     0.765290000000     0          
C788     C      0.077700000000     0.922300000000     0.613600000000     0          
O789     O      0.547770000000     0.126860000000     0.452230000000     0          
O790     O      0.588110000000     0.070720000000     0.411890000000     0          
C791     C      0.676520000000     0.262700000000     0.323480000000     0          
C792     C      0.652160000000     0.222400000000     0.347840000000     0          
C793     C      0.661830000000     0.175500000000     0.338170000000     0          
H794     H      0.684970000000     0.167360000000     0.315030000000     0          
C795     C      0.637700000000     0.140300000000     0.362300000000     0          
H796     H      0.644560000000     0.107950000000     0.355440000000     0          
C797     C      0.604090000000     0.151000000000     0.395910000000     0          
C798     C      0.594100000000     0.197700000000     0.405900000000     0          
H799     H      0.570940000000     0.205770000000     0.429060000000     0          
C800     C      0.618800000000     0.232900000000     0.381200000000     0          
H801     H      0.612040000000     0.265290000000     0.387960000000     0          
C802     C      0.577700000000     0.113600000000     0.422300000000     0          
O803     O      0.047770000000     0.626860000000     0.952230000000     0          
O804     O      0.088110000000     0.570720000000     0.911890000000     0          
C805     C      0.176520000000     0.762700000000     0.823480000000     0          
C806     C      0.152160000000     0.722400000000     0.847840000000     0          
C807     C      0.161830000000     0.675500000000     0.838170000000     0          
H808     H      0.184970000000     0.667360000000     0.815030000000     0          
C809     C      0.137700000000     0.640300000000     0.862300000000     0          
H810     H      0.144560000000     0.607950000000     0.855440000000     0          
C811     C      0.104090000000     0.651000000000     0.895910000000     0          
C812     C      0.094100000000     0.697700000000     0.905900000000     0          
H813     H      0.070940000000     0.705770000000     0.929060000000     0          
C814     C      0.118800000000     0.732900000000     0.881200000000     0          
H815     H      0.112040000000     0.765290000000     0.887960000000     0          
C816     C      0.077700000000     0.613600000000     0.922300000000     0          
O817     O      0.547770000000     0.873140000000     0.547770000000     0          
O818     O      0.588110000000     0.929280000000     0.588110000000     0          
C819     C      0.676520000000     0.737300000000     0.676520000000     0          
C820     C      0.652160000000     0.777600000000     0.652160000000     0          
C821     C      0.661830000000     0.824500000000     0.661830000000     0          
H822     H      0.684970000000     0.832640000000     0.684970000000     0          
C823     C      0.637700000000     0.859700000000     0.637700000000     0          
H824     H      0.644560000000     0.892050000000     0.644560000000     0          
C825     C      0.604090000000     0.849000000000     0.604090000000     0          
C826     C      0.594100000000     0.802300000000     0.594100000000     0          
H827     H      0.570940000000     0.794230000000     0.570940000000     0          
C828     C      0.618800000000     0.767100000000     0.618800000000     0          
H829     H      0.612040000000     0.734710000000     0.612040000000     0          
C830     C      0.577700000000     0.886400000000     0.577700000000     0          
O831     O      0.047770000000     0.373140000000     0.047770000000     0          
O832     O      0.088110000000     0.429280000000     0.088110000000     0          
C833     C      0.176520000000     0.237300000000     0.176520000000     0          
C834     C      0.152160000000     0.277600000000     0.152160000000     0          
C835     C      0.161830000000     0.324500000000     0.161830000000     0          
H836     H      0.184970000000     0.332640000000     0.184970000000     0          
C837     C      0.137700000000     0.359700000000     0.137700000000     0          
H838     H      0.144560000000     0.392050000000     0.144560000000     0          
C839     C      0.104090000000     0.349000000000     0.104090000000     0          
C840     C      0.094100000000     0.302300000000     0.094100000000     0          
H841     H      0.070940000000     0.294230000000     0.070940000000     0          
C842     C      0.118800000000     0.267100000000     0.118800000000     0          
H843     H      0.112040000000     0.234710000000     0.112040000000     0          
C844     C      0.077700000000     0.386400000000     0.077700000000     0          
O845     O      0.452230000000     0.126860000000     0.547770000000     0          
O846     O      0.411890000000     0.070720000000     0.588110000000     0          
C847     C      0.323480000000     0.262700000000     0.676520000000     0          
C848     C      0.347840000000     0.222400000000     0.652160000000     0          
C849     C      0.338170000000     0.175500000000     0.661830000000     0          
H850     H      0.315030000000     0.167360000000     0.684970000000     0          
C851     C      0.362300000000     0.140300000000     0.637700000000     0          
H852     H      0.355440000000     0.107950000000     0.644560000000     0          
C853     C      0.395910000000     0.151000000000     0.604090000000     0          
C854     C      0.405900000000     0.197700000000     0.594100000000     0          
H855     H      0.429060000000     0.205770000000     0.570940000000     0          
C856     C      0.381200000000     0.232900000000     0.618800000000     0          
H857     H      0.387960000000     0.265290000000     0.612040000000     0          
C858     C      0.422300000000     0.113600000000     0.577700000000     0          
O859     O      0.952230000000     0.626860000000     0.047770000000     0          
O860     O      0.911890000000     0.570720000000     0.088110000000     0          
C861     C      0.823480000000     0.762700000000     0.176520000000     0          
C862     C      0.847840000000     0.722400000000     0.152160000000     0          
C863     C      0.838170000000     0.675500000000     0.161830000000     0          
H864     H      0.815030000000     0.667360000000     0.184970000000     0          
C865     C      0.862300000000     0.640300000000     0.137700000000     0          
H866     H      0.855440000000     0.607950000000     0.144560000000     0          
C867     C      0.895910000000     0.651000000000     0.104090000000     0          
C868     C      0.905900000000     0.697700000000     0.094100000000     0          
H869     H      0.929060000000     0.705770000000     0.070940000000     0          
C870     C      0.881200000000     0.732900000000     0.118800000000     0          
H871     H      0.887960000000     0.765290000000     0.112040000000     0          
C872     C      0.922300000000     0.613600000000     0.077700000000     0          
O873     O      0.452230000000     0.873140000000     0.452230000000     0          
O874     O      0.411890000000     0.929280000000     0.411890000000     0          
C875     C      0.323480000000     0.737300000000     0.323480000000     0          
C876     C      0.347840000000     0.777600000000     0.347840000000     0          
C877     C      0.338170000000     0.824500000000     0.338170000000     0          
H878     H      0.315030000000     0.832640000000     0.315030000000     0          
C879     C      0.362300000000     0.859700000000     0.362300000000     0          
H880     H      0.355440000000     0.892050000000     0.355440000000     0          
C881     C      0.395910000000     0.849000000000     0.395910000000     0          
C882     C      0.405900000000     0.802300000000     0.405900000000     0          
H883     H      0.429060000000     0.794230000000     0.429060000000     0          
C884     C      0.381200000000     0.767100000000     0.381200000000     0          
H885     H      0.387960000000     0.734710000000     0.387960000000     0          
C886     C      0.422300000000     0.886400000000     0.422300000000     0          
O887     O      0.952230000000     0.373140000000     0.952230000000     0          
O888     O      0.911890000000     0.429280000000     0.911890000000     0          
C889     C      0.823480000000     0.237300000000     0.823480000000     0          
C890     C      0.847840000000     0.277600000000     0.847840000000     0          
C891     C      0.838170000000     0.324500000000     0.838170000000     0          
H892     H      0.815030000000     0.332640000000     0.815030000000     0          
C893     C      0.862300000000     0.359700000000     0.862300000000     0          
H894     H      0.855440000000     0.392050000000     0.855440000000     0          
C895     C      0.895910000000     0.349000000000     0.895910000000     0          
C896     C      0.905900000000     0.302300000000     0.905900000000     0          
H897     H      0.929060000000     0.294230000000     0.929060000000     0          
C898     C      0.881200000000     0.267100000000     0.881200000000     0          
H899     H      0.887960000000     0.234710000000     0.887960000000     0          
C900     C      0.922300000000     0.386400000000     0.922300000000     0          
C901     C      0.717340000000     0.282660000000     0.656500000000     0          
C902     C      0.738800000000     0.261200000000     0.611600000000     0          
C903     C      0.217340000000     0.782660000000     0.156500000000     0          
C904     C      0.238800000000     0.761200000000     0.111600000000     0          
C905     C      0.282660000000     0.717340000000     0.656500000000     0          
C906     C      0.261200000000     0.738800000000     0.611600000000     0          
C907     C      0.782660000000     0.217340000000     0.156500000000     0          
C908     C      0.761200000000     0.238800000000     0.111600000000     0          
C909     C      0.282660000000     0.282660000000     0.343500000000     0          
C910     C      0.261200000000     0.261200000000     0.388400000000     0          
C911     C      0.782660000000     0.782660000000     0.843500000000     0          
C912     C      0.761200000000     0.761200000000     0.888400000000     0          
C913     C      0.717340000000     0.717340000000     0.343500000000     0          
C914     C      0.738800000000     0.738800000000     0.388400000000     0          
C915     C      0.217340000000     0.217340000000     0.843500000000     0          
C916     C      0.238800000000     0.238800000000     0.888400000000     0          
C917     C      0.656500000000     0.717340000000     0.282660000000     0          
C918     C      0.611600000000     0.738800000000     0.261200000000     0          
C919     C      0.156500000000     0.217340000000     0.782660000000     0          
C920     C      0.111600000000     0.238800000000     0.761200000000     0          
C921     C      0.656500000000     0.282660000000     0.717340000000     0          
C922     C      0.611600000000     0.261200000000     0.738800000000     0          
C923     C      0.156500000000     0.782660000000     0.217340000000     0          
C924     C      0.111600000000     0.761200000000     0.238800000000     0          
C925     C      0.343500000000     0.282660000000     0.282660000000     0          
C926     C      0.388400000000     0.261200000000     0.261200000000     0          
C927     C      0.843500000000     0.782660000000     0.782660000000     0          
C928     C      0.888400000000     0.761200000000     0.761200000000     0          
C929     C      0.343500000000     0.717340000000     0.717340000000     0          
C930     C      0.388400000000     0.738800000000     0.738800000000     0          
C931     C      0.843500000000     0.217340000000     0.217340000000     0          
C932     C      0.888400000000     0.238800000000     0.238800000000     0          
C933     C      0.282660000000     0.656500000000     0.717340000000     0          
C934     C      0.261200000000     0.611600000000     0.738800000000     0          
C935     C      0.782660000000     0.156500000000     0.217340000000     0          
C936     C      0.761200000000     0.111600000000     0.238800000000     0          
C937     C      0.717340000000     0.656500000000     0.282660000000     0          
C938     C      0.738800000000     0.611600000000     0.261200000000     0          
C939     C      0.217340000000     0.156500000000     0.782660000000     0          
C940     C      0.238800000000     0.111600000000     0.761200000000     0          
C941     C      0.282660000000     0.343500000000     0.282660000000     0          
C942     C      0.261200000000     0.388400000000     0.261200000000     0          
C943     C      0.782660000000     0.843500000000     0.782660000000     0          
C944     C      0.761200000000     0.888400000000     0.761200000000     0          
C945     C      0.717340000000     0.343500000000     0.717340000000     0          
C946     C      0.738800000000     0.388400000000     0.738800000000     0          
C947     C      0.217340000000     0.843500000000     0.217340000000     0          
C948     C      0.238800000000     0.888400000000     0.238800000000     0          
C949     C      0.282660000000     0.717340000000     0.343500000000     0          
C950     C      0.261200000000     0.738800000000     0.388400000000     0          
C951     C      0.782660000000     0.217340000000     0.843500000000     0          
C952     C      0.761200000000     0.238800000000     0.888400000000     0          
C953     C      0.717340000000     0.282660000000     0.343500000000     0          
C954     C      0.738800000000     0.261200000000     0.388400000000     0          
C955     C      0.217340000000     0.782660000000     0.843500000000     0          
C956     C      0.238800000000     0.761200000000     0.888400000000     0          
C957     C      0.282660000000     0.282660000000     0.656500000000     0          
C958     C      0.261200000000     0.261200000000     0.611600000000     0          
C959     C      0.782660000000     0.782660000000     0.156500000000     0          
C960     C      0.761200000000     0.761200000000     0.111600000000     0          
C961     C      0.717340000000     0.717340000000     0.656500000000     0          
C962     C      0.738800000000     0.738800000000     0.611600000000     0          
C963     C      0.217340000000     0.217340000000     0.156500000000     0          
C964     C      0.238800000000     0.238800000000     0.111600000000     0          
C965     C      0.717340000000     0.656500000000     0.717340000000     0          
C966     C      0.738800000000     0.611600000000     0.738800000000     0          
C967     C      0.217340000000     0.156500000000     0.217340000000     0          
C968     C      0.238800000000     0.111600000000     0.238800000000     0          
C969     C      0.282660000000     0.656500000000     0.282660000000     0          
C970     C      0.261200000000     0.611600000000     0.261200000000     0          
C971     C      0.782660000000     0.156500000000     0.782660000000     0          
C972     C      0.761200000000     0.111600000000     0.761200000000     0          
C973     C      0.282660000000     0.343500000000     0.717340000000     0          
C974     C      0.261200000000     0.388400000000     0.738800000000     0          
C975     C      0.782660000000     0.843500000000     0.217340000000     0          
C976     C      0.761200000000     0.888400000000     0.238800000000     0          
C977     C      0.717340000000     0.343500000000     0.282660000000     0          
C978     C      0.738800000000     0.388400000000     0.261200000000     0          
C979     C      0.217340000000     0.843500000000     0.782660000000     0          
C980     C      0.238800000000     0.888400000000     0.761200000000     0          
C981     C      0.656500000000     0.282660000000     0.282660000000     0          
C982     C      0.611600000000     0.261200000000     0.261200000000     0          
C983     C      0.156500000000     0.782660000000     0.782660000000     0          
C984     C      0.111600000000     0.761200000000     0.761200000000     0          
C985     C      0.656500000000     0.717340000000     0.717340000000     0          
C986     C      0.611600000000     0.738800000000     0.738800000000     0          
C987     C      0.156500000000     0.217340000000     0.217340000000     0          
C988     C      0.111600000000     0.238800000000     0.238800000000     0          
C989     C      0.343500000000     0.282660000000     0.717340000000     0          
C990     C      0.388400000000     0.261200000000     0.738800000000     0          
C991     C      0.843500000000     0.782660000000     0.217340000000     0          
C992     C      0.888400000000     0.761200000000     0.238800000000     0          
C993     C      0.343500000000     0.717340000000     0.282660000000     0          
C994     C      0.388400000000     0.738800000000     0.261200000000     0          
C995     C      0.843500000000     0.217340000000     0.782660000000     0          
C996     C      0.888400000000     0.238800000000     0.761200000000     0          


