data_FINBUC

_audit_creation_method RASPA-1.0
_audit_creation_date 2020-11-2
_audit_author_name 'Rocio Bueno-Perez'

_cell_length_a    39.341
_cell_length_b    39.341
_cell_length_c    16.4692
_cell_angle_alpha 90
_cell_angle_beta  90
_cell_angle_gamma 120
_cell_volume      22074.7

_symmetry_cell_setting          triclinic
_symmetry_space_group_name_Hall 'P 1'
_symmetry_space_group_name_H-M  'P 1'
_symmetry_Int_Tables_number     1

_symmetry_equiv_pos_as_xyz 'x,y,z'

loop_
_atom_site_label
_atom_site_type_symbol
_atom_site_fract_x
_atom_site_fract_y
_atom_site_fract_z
_atom_site_charge
C1       C      0.601600000000     0.093300000000     0.633600000000     0          
C2       C      0.634000000000     0.124700000000     0.683900000000     0          
C3       C      0.652800000000     0.114600000000     0.741300000000     0          
H4       H      0.646420000000     0.088090000000     0.748190000000     0          
C5       C      0.681300000000     0.144200000000     0.789000000000     0          
H6       H      0.693930000000     0.137550000000     0.830010000000     0          
C7       C      0.691600000000     0.182700000000     0.778800000000     0          
C8       C      0.673000000000     0.193000000000     0.718900000000     0          
H9       H      0.680470000000     0.219740000000     0.710870000000     0          
C10      C      0.644400000000     0.164600000000     0.672700000000     0          
H11      H      0.631280000000     0.171380000000     0.632940000000     0          
C12      C      0.690500000000     0.184100000000     0.959100000000     0          
H13      H      0.668930000000     0.163730000000     0.930670000000     0          
C14      C      0.723100000000     0.214900000000     0.913800000000     0          
C15      C      0.722800000000     0.214800000000     0.827200000000     0          
O16      O      0.591510000000     0.058600000000     0.648900000000     0          
O17      O      0.585770000000     0.104450000000     0.580400000000     0          
F18      F      0.568800000000     0.966300000000     0.908100000000     0          
F19      F      0.681900000000     0.034100000000     0.615800000000     0          
C20      C      0.906700000000     0.508300000000     0.633600000000     0          
C21      C      0.875300000000     0.509300000000     0.683900000000     0          
C22      C      0.885400000000     0.538200000000     0.741300000000     0          
H23      H      0.911910000000     0.558330000000     0.748190000000     0          
C24      C      0.855800000000     0.537100000000     0.789000000000     0          
H25      H      0.862450000000     0.556380000000     0.830010000000     0          
C26      C      0.817300000000     0.508900000000     0.778800000000     0          
C27      C      0.807000000000     0.480000000000     0.718900000000     0          
H28      H      0.780260000000     0.460730000000     0.710870000000     0          
C29      C      0.835400000000     0.479800000000     0.672700000000     0          
H30      H      0.828620000000     0.459900000000     0.632940000000     0          
C31      C      0.815900000000     0.506400000000     0.959100000000     0          
H32      H      0.836270000000     0.505200000000     0.930670000000     0          
C33      C      0.785100000000     0.508200000000     0.913800000000     0          
C34      C      0.785200000000     0.508000000000     0.827200000000     0          
O35      O      0.941400000000     0.532910000000     0.648900000000     0          
O36      O      0.895550000000     0.481320000000     0.580400000000     0          
F37      F      0.033700000000     0.602500000000     0.908100000000     0          
F38      F      0.964600000000     0.652300000000     0.700700000000     0          
C39      C      0.491700000000     0.398400000000     0.633600000000     0          
C40      C      0.490700000000     0.366000000000     0.683900000000     0          
C41      C      0.461800000000     0.347200000000     0.741300000000     0          
H42      H      0.441670000000     0.353580000000     0.748190000000     0          
C43      C      0.462900000000     0.318700000000     0.789000000000     0          
H44      H      0.443620000000     0.306070000000     0.830010000000     0          
C45      C      0.491100000000     0.308400000000     0.778800000000     0          
C46      C      0.520000000000     0.327000000000     0.718900000000     0          
H47      H      0.539270000000     0.319530000000     0.710870000000     0          
C48      C      0.520200000000     0.355600000000     0.672700000000     0          
H49      H      0.540100000000     0.368720000000     0.632940000000     0          
C50      C      0.493600000000     0.309500000000     0.959100000000     0          
H51      H      0.494800000000     0.331070000000     0.930670000000     0          
C52      C      0.491800000000     0.276900000000     0.913800000000     0          
C53      C      0.492000000000     0.277200000000     0.827200000000     0          
O54      O      0.467090000000     0.408490000000     0.648900000000     0          
O55      O      0.518680000000     0.414230000000     0.580400000000     0          
F56      F      0.427400000000     0.463900000000     0.891200000000     0          
F57      F      0.352200000000     0.318100000000     0.615800000000     0          
C58      C      0.398400000000     0.906700000000     0.633600000000     0          
C59      C      0.366000000000     0.875300000000     0.683900000000     0          
C60      C      0.347200000000     0.885400000000     0.741300000000     0          
H61      H      0.353580000000     0.911910000000     0.748190000000     0          
C62      C      0.318700000000     0.855800000000     0.789000000000     0          
H63      H      0.306070000000     0.862450000000     0.830010000000     0          
C64      C      0.308400000000     0.817300000000     0.778800000000     0          
C65      C      0.327000000000     0.807000000000     0.718900000000     0          
H66      H      0.319530000000     0.780260000000     0.710870000000     0          
C67      C      0.355600000000     0.835400000000     0.672700000000     0          
H68      H      0.368720000000     0.828620000000     0.632940000000     0          
C69      C      0.309500000000     0.815900000000     0.959100000000     0          
H70      H      0.331070000000     0.836270000000     0.930670000000     0          
C71      C      0.276900000000     0.785100000000     0.913800000000     0          
C72      C      0.277200000000     0.785200000000     0.827200000000     0          
O73      O      0.408490000000     0.941400000000     0.648900000000     0          
O74      O      0.414230000000     0.895550000000     0.580400000000     0          
F75      F      0.463900000000     0.036500000000     0.891200000000     0          
F76      F      0.318100000000     0.965900000000     0.615800000000     0          
C77      C      0.093300000000     0.491700000000     0.633600000000     0          
C78      C      0.124700000000     0.490700000000     0.683900000000     0          
C79      C      0.114600000000     0.461800000000     0.741300000000     0          
H80      H      0.088090000000     0.441670000000     0.748190000000     0          
C81      C      0.144200000000     0.462900000000     0.789000000000     0          
H82      H      0.137550000000     0.443620000000     0.830010000000     0          
C83      C      0.182700000000     0.491100000000     0.778800000000     0          
C84      C      0.193000000000     0.520000000000     0.718900000000     0          
H85      H      0.219740000000     0.539270000000     0.710870000000     0          
C86      C      0.164600000000     0.520200000000     0.672700000000     0          
H87      H      0.171380000000     0.540100000000     0.632940000000     0          
C88      C      0.184100000000     0.493600000000     0.959100000000     0          
H89      H      0.163730000000     0.494800000000     0.930670000000     0          
C90      C      0.214900000000     0.491800000000     0.913800000000     0          
C91      C      0.214800000000     0.492000000000     0.827200000000     0          
O92      O      0.058600000000     0.467090000000     0.648900000000     0          
O93      O      0.104450000000     0.518680000000     0.580400000000     0          
F94      F      0.963500000000     0.427400000000     0.891200000000     0          
F95      F      0.034100000000     0.352200000000     0.615800000000     0          
C96      C      0.508300000000     0.601600000000     0.633600000000     0          
C97      C      0.509300000000     0.634000000000     0.683900000000     0          
C98      C      0.538200000000     0.652800000000     0.741300000000     0          
H99      H      0.558330000000     0.646420000000     0.748190000000     0          
C100     C      0.537100000000     0.681300000000     0.789000000000     0          
H101     H      0.556380000000     0.693930000000     0.830010000000     0          
C102     C      0.508900000000     0.691600000000     0.778800000000     0          
C103     C      0.480000000000     0.673000000000     0.718900000000     0          
H104     H      0.460730000000     0.680470000000     0.710870000000     0          
C105     C      0.479800000000     0.644400000000     0.672700000000     0          
H106     H      0.459900000000     0.631280000000     0.632940000000     0          
C107     C      0.506400000000     0.690500000000     0.959100000000     0          
H108     H      0.505200000000     0.668930000000     0.930670000000     0          
C109     C      0.508200000000     0.723100000000     0.913800000000     0          
C110     C      0.508000000000     0.722800000000     0.827200000000     0          
O111     O      0.532910000000     0.591510000000     0.648900000000     0          
O112     O      0.481320000000     0.585770000000     0.580400000000     0          
F113     F      0.572600000000     0.536100000000     0.891200000000     0          
F114     F      0.652300000000     0.687700000000     0.700700000000     0          
C115     C      0.093300000000     0.601600000000     0.366400000000     0          
C116     C      0.124700000000     0.634000000000     0.316100000000     0          
C117     C      0.114600000000     0.652800000000     0.258700000000     0          
H118     H      0.088090000000     0.646420000000     0.251810000000     0          
C119     C      0.144200000000     0.681300000000     0.211000000000     0          
H120     H      0.137550000000     0.693930000000     0.169990000000     0          
C121     C      0.182700000000     0.691600000000     0.221200000000     0          
C122     C      0.193000000000     0.673000000000     0.281100000000     0          
H123     H      0.219740000000     0.680470000000     0.289130000000     0          
C124     C      0.164600000000     0.644400000000     0.327300000000     0          
H125     H      0.171380000000     0.631280000000     0.367060000000     0          
C126     C      0.184100000000     0.690500000000     0.040900000000     0          
H127     H      0.163730000000     0.668930000000     0.069330000000     0          
C128     C      0.214900000000     0.723100000000     0.086200000000     0          
C129     C      0.214800000000     0.722800000000     0.172800000000     0          
O130     O      0.058600000000     0.591510000000     0.351100000000     0          
O131     O      0.104450000000     0.585770000000     0.419600000000     0          
F132     F      0.963500000000     0.536100000000     0.108800000000     0          
F133     F      0.035400000000     0.687700000000     0.299300000000     0          
C134     C      0.508300000000     0.906700000000     0.366400000000     0          
C135     C      0.509300000000     0.875300000000     0.316100000000     0          
C136     C      0.538200000000     0.885400000000     0.258700000000     0          
H137     H      0.558330000000     0.911910000000     0.251810000000     0          
C138     C      0.537100000000     0.855800000000     0.211000000000     0          
H139     H      0.556380000000     0.862450000000     0.169990000000     0          
C140     C      0.508900000000     0.817300000000     0.221200000000     0          
C141     C      0.480000000000     0.807000000000     0.281100000000     0          
H142     H      0.460730000000     0.780260000000     0.289130000000     0          
C143     C      0.479800000000     0.835400000000     0.327300000000     0          
H144     H      0.459900000000     0.828620000000     0.367060000000     0          
C145     C      0.506400000000     0.815900000000     0.040900000000     0          
H146     H      0.505200000000     0.836270000000     0.069330000000     0          
C147     C      0.508200000000     0.785100000000     0.086200000000     0          
C148     C      0.508000000000     0.785200000000     0.172800000000     0          
O149     O      0.532910000000     0.941400000000     0.351100000000     0          
O150     O      0.481320000000     0.895550000000     0.419600000000     0          
F151     F      0.572600000000     0.036500000000     0.108800000000     0          
F152     F      0.647800000000     0.965900000000     0.384200000000     0          
C153     C      0.398400000000     0.491700000000     0.366400000000     0          
C154     C      0.366000000000     0.490700000000     0.316100000000     0          
C155     C      0.347200000000     0.461800000000     0.258700000000     0          
H156     H      0.353580000000     0.441670000000     0.251810000000     0          
C157     C      0.318700000000     0.462900000000     0.211000000000     0          
H158     H      0.306070000000     0.443620000000     0.169990000000     0          
C159     C      0.308400000000     0.491100000000     0.221200000000     0          
C160     C      0.327000000000     0.520000000000     0.281100000000     0          
H161     H      0.319530000000     0.539270000000     0.289130000000     0          
C162     C      0.355600000000     0.520200000000     0.327300000000     0          
H163     H      0.368720000000     0.540100000000     0.367060000000     0          
C164     C      0.309500000000     0.493600000000     0.040900000000     0          
H165     H      0.331070000000     0.494800000000     0.069330000000     0          
C166     C      0.276900000000     0.491800000000     0.086200000000     0          
C167     C      0.277200000000     0.492000000000     0.172800000000     0          
O168     O      0.408490000000     0.467090000000     0.351100000000     0          
O169     O      0.414230000000     0.518680000000     0.419600000000     0          
F170     F      0.431200000000     0.397500000000     0.091900000000     0          
F171     F      0.318100000000     0.352200000000     0.384200000000     0          
C172     C      0.906700000000     0.398400000000     0.366400000000     0          
C173     C      0.875300000000     0.366000000000     0.316100000000     0          
C174     C      0.885400000000     0.347200000000     0.258700000000     0          
H175     H      0.911910000000     0.353580000000     0.251810000000     0          
C176     C      0.855800000000     0.318700000000     0.211000000000     0          
H177     H      0.862450000000     0.306070000000     0.169990000000     0          
C178     C      0.817300000000     0.308400000000     0.221200000000     0          
C179     C      0.807000000000     0.327000000000     0.281100000000     0          
H180     H      0.780260000000     0.319530000000     0.289130000000     0          
C181     C      0.835400000000     0.355600000000     0.327300000000     0          
H182     H      0.828620000000     0.368720000000     0.367060000000     0          
C183     C      0.815900000000     0.309500000000     0.040900000000     0          
H184     H      0.836270000000     0.331070000000     0.069330000000     0          
C185     C      0.785100000000     0.276900000000     0.086200000000     0          
C186     C      0.785200000000     0.277200000000     0.172800000000     0          
O187     O      0.941400000000     0.408490000000     0.351100000000     0          
O188     O      0.895550000000     0.414230000000     0.419600000000     0          
F189     F      0.036500000000     0.463900000000     0.108800000000     0          
F190     F      0.965900000000     0.318100000000     0.384200000000     0          
C191     C      0.491700000000     0.093300000000     0.366400000000     0          
C192     C      0.490700000000     0.124700000000     0.316100000000     0          
C193     C      0.461800000000     0.114600000000     0.258700000000     0          
H194     H      0.441670000000     0.088090000000     0.251810000000     0          
C195     C      0.462900000000     0.144200000000     0.211000000000     0          
H196     H      0.443620000000     0.137550000000     0.169990000000     0          
C197     C      0.491100000000     0.182700000000     0.221200000000     0          
C198     C      0.520000000000     0.193000000000     0.281100000000     0          
H199     H      0.539270000000     0.219740000000     0.289130000000     0          
C200     C      0.520200000000     0.164600000000     0.327300000000     0          
H201     H      0.540100000000     0.171380000000     0.367060000000     0          
C202     C      0.493600000000     0.184100000000     0.040900000000     0          
H203     H      0.494800000000     0.163730000000     0.069330000000     0          
C204     C      0.491800000000     0.214900000000     0.086200000000     0          
C205     C      0.492000000000     0.214800000000     0.172800000000     0          
O206     O      0.467090000000     0.058600000000     0.351100000000     0          
O207     O      0.518680000000     0.104450000000     0.419600000000     0          
F208     F      0.397500000000     0.966300000000     0.091900000000     0          
F209     F      0.347700000000     0.035400000000     0.299300000000     0          
C210     C      0.601600000000     0.508300000000     0.366400000000     0          
C211     C      0.634000000000     0.509300000000     0.316100000000     0          
C212     C      0.652800000000     0.538200000000     0.258700000000     0          
H213     H      0.646420000000     0.558330000000     0.251810000000     0          
C214     C      0.681300000000     0.537100000000     0.211000000000     0          
H215     H      0.693930000000     0.556380000000     0.169990000000     0          
C216     C      0.691600000000     0.508900000000     0.221200000000     0          
C217     C      0.673000000000     0.480000000000     0.281100000000     0          
H218     H      0.680470000000     0.460730000000     0.289130000000     0          
C219     C      0.644400000000     0.479800000000     0.327300000000     0          
H220     H      0.631280000000     0.459900000000     0.367060000000     0          
C221     C      0.690500000000     0.506400000000     0.040900000000     0          
H222     H      0.668930000000     0.505200000000     0.069330000000     0          
C223     C      0.723100000000     0.508200000000     0.086200000000     0          
C224     C      0.722800000000     0.508000000000     0.172800000000     0          
O225     O      0.591510000000     0.532910000000     0.351100000000     0          
O226     O      0.585770000000     0.481320000000     0.419600000000     0          
F227     F      0.568800000000     0.602500000000     0.091900000000     0          
F228     F      0.687700000000     0.652300000000     0.299300000000     0          
C229     C      0.398400000000     0.906700000000     0.366400000000     0          
C230     C      0.366000000000     0.875300000000     0.316100000000     0          
C231     C      0.347200000000     0.885400000000     0.258700000000     0          
H232     H      0.353580000000     0.911910000000     0.251810000000     0          
C233     C      0.318700000000     0.855800000000     0.211000000000     0          
H234     H      0.306070000000     0.862450000000     0.169990000000     0          
C235     C      0.308400000000     0.817300000000     0.221200000000     0          
C236     C      0.327000000000     0.807000000000     0.281100000000     0          
H237     H      0.319530000000     0.780260000000     0.289130000000     0          
C238     C      0.355600000000     0.835400000000     0.327300000000     0          
H239     H      0.368720000000     0.828620000000     0.367060000000     0          
C240     C      0.309500000000     0.815900000000     0.040900000000     0          
H241     H      0.331070000000     0.836270000000     0.069330000000     0          
C242     C      0.276900000000     0.785100000000     0.086200000000     0          
C243     C      0.277200000000     0.785200000000     0.172800000000     0          
O244     O      0.408490000000     0.941400000000     0.351100000000     0          
O245     O      0.414230000000     0.895550000000     0.419600000000     0          
F246     F      0.431200000000     0.033700000000     0.091900000000     0          
F247     F      0.312300000000     0.964600000000     0.299300000000     0          
C248     C      0.093300000000     0.491700000000     0.366400000000     0          
C249     C      0.124700000000     0.490700000000     0.316100000000     0          
C250     C      0.114600000000     0.461800000000     0.258700000000     0          
H251     H      0.088090000000     0.441670000000     0.251810000000     0          
C252     C      0.144200000000     0.462900000000     0.211000000000     0          
H253     H      0.137550000000     0.443620000000     0.169990000000     0          
C254     C      0.182700000000     0.491100000000     0.221200000000     0          
C255     C      0.193000000000     0.520000000000     0.281100000000     0          
H256     H      0.219740000000     0.539270000000     0.289130000000     0          
C257     C      0.164600000000     0.520200000000     0.327300000000     0          
H258     H      0.171380000000     0.540100000000     0.367060000000     0          
C259     C      0.184100000000     0.493600000000     0.040900000000     0          
H260     H      0.163730000000     0.494800000000     0.069330000000     0          
C261     C      0.214900000000     0.491800000000     0.086200000000     0          
C262     C      0.214800000000     0.492000000000     0.172800000000     0          
O263     O      0.058600000000     0.467090000000     0.351100000000     0          
O264     O      0.104450000000     0.518680000000     0.419600000000     0          
F265     F      0.963500000000     0.427400000000     0.108800000000     0          
F266     F      0.034100000000     0.352200000000     0.384200000000     0          
C267     C      0.508300000000     0.601600000000     0.366400000000     0          
C268     C      0.509300000000     0.634000000000     0.316100000000     0          
C269     C      0.538200000000     0.652800000000     0.258700000000     0          
H270     H      0.558330000000     0.646420000000     0.251810000000     0          
C271     C      0.537100000000     0.681300000000     0.211000000000     0          
H272     H      0.556380000000     0.693930000000     0.169990000000     0          
C273     C      0.508900000000     0.691600000000     0.221200000000     0          
C274     C      0.480000000000     0.673000000000     0.281100000000     0          
H275     H      0.460730000000     0.680470000000     0.289130000000     0          
C276     C      0.479800000000     0.644400000000     0.327300000000     0          
H277     H      0.459900000000     0.631280000000     0.367060000000     0          
C278     C      0.506400000000     0.690500000000     0.040900000000     0          
H279     H      0.505200000000     0.668930000000     0.069330000000     0          
C280     C      0.508200000000     0.723100000000     0.086200000000     0          
C281     C      0.508000000000     0.722800000000     0.172800000000     0          
O282     O      0.532910000000     0.591510000000     0.351100000000     0          
O283     O      0.481320000000     0.585770000000     0.419600000000     0          
F284     F      0.602500000000     0.568800000000     0.091900000000     0          
F285     F      0.652300000000     0.687700000000     0.299300000000     0          
C286     C      0.601600000000     0.093300000000     0.366400000000     0          
C287     C      0.634000000000     0.124700000000     0.316100000000     0          
C288     C      0.652800000000     0.114600000000     0.258700000000     0          
H289     H      0.646420000000     0.088090000000     0.251810000000     0          
C290     C      0.681300000000     0.144200000000     0.211000000000     0          
H291     H      0.693930000000     0.137550000000     0.169990000000     0          
C292     C      0.691600000000     0.182700000000     0.221200000000     0          
C293     C      0.673000000000     0.193000000000     0.281100000000     0          
H294     H      0.680470000000     0.219740000000     0.289130000000     0          
C295     C      0.644400000000     0.164600000000     0.327300000000     0          
H296     H      0.631280000000     0.171380000000     0.367060000000     0          
C297     C      0.690500000000     0.184100000000     0.040900000000     0          
H298     H      0.668930000000     0.163730000000     0.069330000000     0          
C299     C      0.723100000000     0.214900000000     0.086200000000     0          
C300     C      0.722800000000     0.214800000000     0.172800000000     0          
O301     O      0.591510000000     0.058600000000     0.351100000000     0          
O302     O      0.585770000000     0.104450000000     0.419600000000     0          
F303     F      0.536100000000     0.963500000000     0.108800000000     0          
F304     F      0.681900000000     0.034100000000     0.384200000000     0          
C305     C      0.906700000000     0.508300000000     0.366400000000     0          
C306     C      0.875300000000     0.509300000000     0.316100000000     0          
C307     C      0.885400000000     0.538200000000     0.258700000000     0          
H308     H      0.911910000000     0.558330000000     0.251810000000     0          
C309     C      0.855800000000     0.537100000000     0.211000000000     0          
H310     H      0.862450000000     0.556380000000     0.169990000000     0          
C311     C      0.817300000000     0.508900000000     0.221200000000     0          
C312     C      0.807000000000     0.480000000000     0.281100000000     0          
H313     H      0.780260000000     0.460730000000     0.289130000000     0          
C314     C      0.835400000000     0.479800000000     0.327300000000     0          
H315     H      0.828620000000     0.459900000000     0.367060000000     0          
C316     C      0.815900000000     0.506400000000     0.040900000000     0          
H317     H      0.836270000000     0.505200000000     0.069330000000     0          
C318     C      0.785100000000     0.508200000000     0.086200000000     0          
C319     C      0.785200000000     0.508000000000     0.172800000000     0          
O320     O      0.941400000000     0.532910000000     0.351100000000     0          
O321     O      0.895550000000     0.481320000000     0.419600000000     0          
F322     F      0.036500000000     0.572600000000     0.108800000000     0          
F323     F      0.964600000000     0.652300000000     0.299300000000     0          
C324     C      0.491700000000     0.398400000000     0.366400000000     0          
C325     C      0.490700000000     0.366000000000     0.316100000000     0          
C326     C      0.461800000000     0.347200000000     0.258700000000     0          
H327     H      0.441670000000     0.353580000000     0.251810000000     0          
C328     C      0.462900000000     0.318700000000     0.211000000000     0          
H329     H      0.443620000000     0.306070000000     0.169990000000     0          
C330     C      0.491100000000     0.308400000000     0.221200000000     0          
C331     C      0.520000000000     0.327000000000     0.281100000000     0          
H332     H      0.539270000000     0.319530000000     0.289130000000     0          
C333     C      0.520200000000     0.355600000000     0.327300000000     0          
H334     H      0.540100000000     0.368720000000     0.367060000000     0          
C335     C      0.493600000000     0.309500000000     0.040900000000     0          
H336     H      0.494800000000     0.331070000000     0.069330000000     0          
C337     C      0.491800000000     0.276900000000     0.086200000000     0          
C338     C      0.492000000000     0.277200000000     0.172800000000     0          
O339     O      0.467090000000     0.408490000000     0.351100000000     0          
O340     O      0.518680000000     0.414230000000     0.419600000000     0          
F341     F      0.397500000000     0.431200000000     0.091900000000     0          
F342     F      0.352200000000     0.318100000000     0.384200000000     0          
C343     C      0.906700000000     0.398400000000     0.633600000000     0          
C344     C      0.875300000000     0.366000000000     0.683900000000     0          
C345     C      0.885400000000     0.347200000000     0.741300000000     0          
H346     H      0.911910000000     0.353580000000     0.748190000000     0          
C347     C      0.855800000000     0.318700000000     0.789000000000     0          
H348     H      0.862450000000     0.306070000000     0.830010000000     0          
C349     C      0.817300000000     0.308400000000     0.778800000000     0          
C350     C      0.807000000000     0.327000000000     0.718900000000     0          
H351     H      0.780260000000     0.319530000000     0.710870000000     0          
C352     C      0.835400000000     0.355600000000     0.672700000000     0          
H353     H      0.828620000000     0.368720000000     0.632940000000     0          
C354     C      0.815900000000     0.309500000000     0.959100000000     0          
H355     H      0.836270000000     0.331070000000     0.930670000000     0          
C356     C      0.785100000000     0.276900000000     0.913800000000     0          
C357     C      0.785200000000     0.277200000000     0.827200000000     0          
O358     O      0.941400000000     0.408490000000     0.648900000000     0          
O359     O      0.895550000000     0.414230000000     0.580400000000     0          
F360     F      0.036500000000     0.463900000000     0.891200000000     0          
F361     F      0.965900000000     0.318100000000     0.615800000000     0          
C362     C      0.491700000000     0.093300000000     0.633600000000     0          
C363     C      0.490700000000     0.124700000000     0.683900000000     0          
C364     C      0.461800000000     0.114600000000     0.741300000000     0          
H365     H      0.441670000000     0.088090000000     0.748190000000     0          
C366     C      0.462900000000     0.144200000000     0.789000000000     0          
H367     H      0.443620000000     0.137550000000     0.830010000000     0          
C368     C      0.491100000000     0.182700000000     0.778800000000     0          
C369     C      0.520000000000     0.193000000000     0.718900000000     0          
H370     H      0.539270000000     0.219740000000     0.710870000000     0          
C371     C      0.520200000000     0.164600000000     0.672700000000     0          
H372     H      0.540100000000     0.171380000000     0.632940000000     0          
C373     C      0.493600000000     0.184100000000     0.959100000000     0          
H374     H      0.494800000000     0.163730000000     0.930670000000     0          
C375     C      0.491800000000     0.214900000000     0.913800000000     0          
C376     C      0.492000000000     0.214800000000     0.827200000000     0          
O377     O      0.467090000000     0.058600000000     0.648900000000     0          
O378     O      0.518680000000     0.104450000000     0.580400000000     0          
F379     F      0.427400000000     0.963500000000     0.891200000000     0          
F380     F      0.352200000000     0.034100000000     0.615800000000     0          
C381     C      0.601600000000     0.508300000000     0.633600000000     0          
C382     C      0.634000000000     0.509300000000     0.683900000000     0          
C383     C      0.652800000000     0.538200000000     0.741300000000     0          
H384     H      0.646420000000     0.558330000000     0.748190000000     0          
C385     C      0.681300000000     0.537100000000     0.789000000000     0          
H386     H      0.693930000000     0.556380000000     0.830010000000     0          
C387     C      0.691600000000     0.508900000000     0.778800000000     0          
C388     C      0.673000000000     0.480000000000     0.718900000000     0          
H389     H      0.680470000000     0.460730000000     0.710870000000     0          
C390     C      0.644400000000     0.479800000000     0.672700000000     0          
H391     H      0.631280000000     0.459900000000     0.632940000000     0          
C392     C      0.690500000000     0.506400000000     0.959100000000     0          
H393     H      0.668930000000     0.505200000000     0.930670000000     0          
C394     C      0.723100000000     0.508200000000     0.913800000000     0          
C395     C      0.722800000000     0.508000000000     0.827200000000     0          
O396     O      0.591510000000     0.532910000000     0.648900000000     0          
O397     O      0.585770000000     0.481320000000     0.580400000000     0          
F398     F      0.536100000000     0.572600000000     0.891200000000     0          
F399     F      0.687700000000     0.652300000000     0.700700000000     0          
C400     C      0.093300000000     0.601600000000     0.633600000000     0          
C401     C      0.124700000000     0.634000000000     0.683900000000     0          
C402     C      0.114600000000     0.652800000000     0.741300000000     0          
H403     H      0.088090000000     0.646420000000     0.748190000000     0          
C404     C      0.144200000000     0.681300000000     0.789000000000     0          
H405     H      0.137550000000     0.693930000000     0.830010000000     0          
C406     C      0.182700000000     0.691600000000     0.778800000000     0          
C407     C      0.193000000000     0.673000000000     0.718900000000     0          
H408     H      0.219740000000     0.680470000000     0.710870000000     0          
C409     C      0.164600000000     0.644400000000     0.672700000000     0          
H410     H      0.171380000000     0.631280000000     0.632940000000     0          
C411     C      0.184100000000     0.690500000000     0.959100000000     0          
H412     H      0.163730000000     0.668930000000     0.930670000000     0          
C413     C      0.214900000000     0.723100000000     0.913800000000     0          
C414     C      0.214800000000     0.722800000000     0.827200000000     0          
O415     O      0.058600000000     0.591510000000     0.648900000000     0          
O416     O      0.104450000000     0.585770000000     0.580400000000     0          
F417     F      0.966300000000     0.568800000000     0.908100000000     0          
F418     F      0.035400000000     0.687700000000     0.700700000000     0          
C419     C      0.508300000000     0.906700000000     0.633600000000     0          
C420     C      0.509300000000     0.875300000000     0.683900000000     0          
C421     C      0.538200000000     0.885400000000     0.741300000000     0          
H422     H      0.558330000000     0.911910000000     0.748190000000     0          
C423     C      0.537100000000     0.855800000000     0.789000000000     0          
H424     H      0.556380000000     0.862450000000     0.830010000000     0          
C425     C      0.508900000000     0.817300000000     0.778800000000     0          
C426     C      0.480000000000     0.807000000000     0.718900000000     0          
H427     H      0.460730000000     0.780260000000     0.710870000000     0          
C428     C      0.479800000000     0.835400000000     0.672700000000     0          
H429     H      0.459900000000     0.828620000000     0.632940000000     0          
C430     C      0.506400000000     0.815900000000     0.959100000000     0          
H431     H      0.505200000000     0.836270000000     0.930670000000     0          
C432     C      0.508200000000     0.785100000000     0.913800000000     0          
C433     C      0.508000000000     0.785200000000     0.827200000000     0          
O434     O      0.532910000000     0.941400000000     0.648900000000     0          
O435     O      0.481320000000     0.895550000000     0.580400000000     0          
F436     F      0.602500000000     0.033700000000     0.908100000000     0          
F437     F      0.647800000000     0.965900000000     0.615800000000     0          
C438     C      0.398400000000     0.491700000000     0.633600000000     0          
C439     C      0.366000000000     0.490700000000     0.683900000000     0          
C440     C      0.347200000000     0.461800000000     0.741300000000     0          
H441     H      0.353580000000     0.441670000000     0.748190000000     0          
C442     C      0.318700000000     0.462900000000     0.789000000000     0          
H443     H      0.306070000000     0.443620000000     0.830010000000     0          
C444     C      0.308400000000     0.491100000000     0.778800000000     0          
C445     C      0.327000000000     0.520000000000     0.718900000000     0          
H446     H      0.319530000000     0.539270000000     0.710870000000     0          
C447     C      0.355600000000     0.520200000000     0.672700000000     0          
H448     H      0.368720000000     0.540100000000     0.632940000000     0          
C449     C      0.309500000000     0.493600000000     0.959100000000     0          
H450     H      0.331070000000     0.494800000000     0.930670000000     0          
C451     C      0.276900000000     0.491800000000     0.913800000000     0          
C452     C      0.277200000000     0.492000000000     0.827200000000     0          
O453     O      0.408490000000     0.467090000000     0.648900000000     0          
O454     O      0.414230000000     0.518680000000     0.580400000000     0          
F455     F      0.463900000000     0.427400000000     0.891200000000     0          
F456     F      0.318100000000     0.352200000000     0.615800000000     0          
C457     C      0.753700000000     0.246300000000     0.787700000000     0          
H458     H      0.753340000000     0.246660000000     0.730010000000     0          
C459     C      0.753950000000     0.246050000000     0.957200000000     0          
C460     C      0.753700000000     0.507400000000     0.787700000000     0          
H461     H      0.753340000000     0.506680000000     0.730010000000     0          
C462     C      0.753950000000     0.507900000000     0.957200000000     0          
C463     C      0.492600000000     0.246300000000     0.787700000000     0          
H464     H      0.493320000000     0.246660000000     0.730010000000     0          
C465     C      0.492100000000     0.246050000000     0.957200000000     0          
C466     C      0.246300000000     0.753700000000     0.787700000000     0          
H467     H      0.246660000000     0.753340000000     0.730010000000     0          
C468     C      0.246050000000     0.753950000000     0.957200000000     0          
C469     C      0.246300000000     0.492600000000     0.787700000000     0          
H470     H      0.246660000000     0.493320000000     0.730010000000     0          
C471     C      0.246050000000     0.492100000000     0.957200000000     0          
C472     C      0.507400000000     0.753700000000     0.787700000000     0          
H473     H      0.506680000000     0.753340000000     0.730010000000     0          
C474     C      0.507900000000     0.753950000000     0.957200000000     0          
C475     C      0.246300000000     0.753700000000     0.212300000000     0          
H476     H      0.246660000000     0.753340000000     0.269990000000     0          
C477     C      0.246050000000     0.753950000000     0.042800000000     0          
C478     C      0.507400000000     0.753700000000     0.212300000000     0          
H479     H      0.506680000000     0.753340000000     0.269990000000     0          
C480     C      0.507900000000     0.753950000000     0.042800000000     0          
C481     C      0.246300000000     0.492600000000     0.212300000000     0          
H482     H      0.246660000000     0.493320000000     0.269990000000     0          
C483     C      0.246050000000     0.492100000000     0.042800000000     0          
C484     C      0.753700000000     0.246300000000     0.212300000000     0          
H485     H      0.753340000000     0.246660000000     0.269990000000     0          
C486     C      0.753950000000     0.246050000000     0.042800000000     0          
C487     C      0.492600000000     0.246300000000     0.212300000000     0          
H488     H      0.493320000000     0.246660000000     0.269990000000     0          
C489     C      0.492100000000     0.246050000000     0.042800000000     0          
C490     C      0.753700000000     0.507400000000     0.212300000000     0          
H491     H      0.753340000000     0.506680000000     0.269990000000     0          
C492     C      0.753950000000     0.507900000000     0.042800000000     0          
C493     C      0.608600000000     0.000000000000     0.758700000000     0          
C494     C      0.619000000000     0.000000000000     0.678800000000     0          
C495     C      0.575800000000     0.000000000000     0.781700000000     0          
C496     C      0.659300000000     0.000000000000     0.657900000000     0          
C497     C      0.567100000000     0.000000000000     0.885300000000     0          
F498     F      0.676800000000     0.000000000000     0.721200000000     0          
O499     O      0.548500000000     0.000000000000     0.740300000000     0          
O500     O      0.600830000000     0.000000000000     0.614900000000     0          
F501     F      0.535700000000     0.000000000000     0.897000000000     0          
Zr502    Zr     0.544790000000     0.000000000000     0.606910000000     0          
C503     C      0.000000000000     0.608600000000     0.758700000000     0          
C504     C      0.000000000000     0.619000000000     0.678800000000     0          
C505     C      0.000000000000     0.575800000000     0.781700000000     0          
C506     C      0.000000000000     0.659300000000     0.657900000000     0          
C507     C      0.000000000000     0.567100000000     0.885300000000     0          
F508     F      0.000000000000     0.666200000000     0.585600000000     0          
O509     O      0.000000000000     0.548500000000     0.740300000000     0          
O510     O      0.000000000000     0.600830000000     0.614900000000     0          
F511     F      0.000000000000     0.535700000000     0.897000000000     0          
Zr512    Zr     0.000000000000     0.544790000000     0.606910000000     0          
C513     C      0.391400000000     0.391400000000     0.758700000000     0          
C514     C      0.381000000000     0.381000000000     0.678800000000     0          
C515     C      0.424200000000     0.424200000000     0.781700000000     0          
C516     C      0.340700000000     0.340700000000     0.657900000000     0          
C517     C      0.432900000000     0.432900000000     0.885300000000     0          
F518     F      0.323200000000     0.323200000000     0.721200000000     0          
O519     O      0.451500000000     0.451500000000     0.740300000000     0          
O520     O      0.399170000000     0.399170000000     0.614900000000     0          
Zr521    Zr     0.455210000000     0.455210000000     0.606910000000     0          
F522     F      0.405500000000     0.405500000000     0.920700000000     0          
C523     C      0.391400000000     0.000000000000     0.758700000000     0          
C524     C      0.381000000000     0.000000000000     0.678800000000     0          
C525     C      0.424200000000     0.000000000000     0.781700000000     0          
C526     C      0.340700000000     0.000000000000     0.657900000000     0          
C527     C      0.432900000000     0.000000000000     0.885300000000     0          
F528     F      0.323200000000     0.000000000000     0.721200000000     0          
O529     O      0.451500000000     0.000000000000     0.740300000000     0          
O530     O      0.399170000000     0.000000000000     0.614900000000     0          
Zr531    Zr     0.455210000000     0.000000000000     0.606910000000     0          
F532     F      0.405500000000     0.000000000000     0.920700000000     0          
C533     C      0.000000000000     0.391400000000     0.758700000000     0          
C534     C      0.000000000000     0.381000000000     0.678800000000     0          
C535     C      0.000000000000     0.424200000000     0.781700000000     0          
C536     C      0.000000000000     0.340700000000     0.657900000000     0          
C537     C      0.000000000000     0.432900000000     0.885300000000     0          
F538     F      0.000000000000     0.323200000000     0.721200000000     0          
O539     O      0.000000000000     0.451500000000     0.740300000000     0          
O540     O      0.000000000000     0.399170000000     0.614900000000     0          
Zr541    Zr     0.000000000000     0.455210000000     0.606910000000     0          
F542     F      0.000000000000     0.405500000000     0.920700000000     0          
C543     C      0.608600000000     0.608600000000     0.758700000000     0          
C544     C      0.619000000000     0.619000000000     0.678800000000     0          
C545     C      0.575800000000     0.575800000000     0.781700000000     0          
C546     C      0.659300000000     0.659300000000     0.657900000000     0          
C547     C      0.567100000000     0.567100000000     0.885300000000     0          
F548     F      0.666200000000     0.666200000000     0.585600000000     0          
O549     O      0.548500000000     0.548500000000     0.740300000000     0          
O550     O      0.600830000000     0.600830000000     0.614900000000     0          
Zr551    Zr     0.544790000000     0.544790000000     0.606910000000     0          
F552     F      0.594500000000     0.594500000000     0.920700000000     0          
C553     C      0.000000000000     0.608600000000     0.241300000000     0          
C554     C      0.000000000000     0.619000000000     0.321200000000     0          
C555     C      0.000000000000     0.575800000000     0.218300000000     0          
C556     C      0.000000000000     0.659300000000     0.342100000000     0          
C557     C      0.000000000000     0.567100000000     0.114700000000     0          
F558     F      0.000000000000     0.666200000000     0.414400000000     0          
O559     O      0.000000000000     0.548500000000     0.259700000000     0          
O560     O      0.000000000000     0.600830000000     0.385100000000     0          
Zr561    Zr     0.000000000000     0.544790000000     0.393090000000     0          
F562     F      0.000000000000     0.594500000000     0.079300000000     0          
C563     C      0.608600000000     0.000000000000     0.241300000000     0          
C564     C      0.619000000000     0.000000000000     0.321200000000     0          
C565     C      0.575800000000     0.000000000000     0.218300000000     0          
C566     C      0.659300000000     0.000000000000     0.342100000000     0          
C567     C      0.567100000000     0.000000000000     0.114700000000     0          
F568     F      0.676800000000     0.000000000000     0.278800000000     0          
O569     O      0.548500000000     0.000000000000     0.259700000000     0          
O570     O      0.600830000000     0.000000000000     0.385100000000     0          
Zr571    Zr     0.544790000000     0.000000000000     0.393090000000     0          
F572     F      0.594500000000     0.000000000000     0.079300000000     0          
C573     C      0.391400000000     0.391400000000     0.241300000000     0          
C574     C      0.381000000000     0.381000000000     0.321200000000     0          
C575     C      0.424200000000     0.424200000000     0.218300000000     0          
C576     C      0.340700000000     0.340700000000     0.342100000000     0          
C577     C      0.432900000000     0.432900000000     0.114700000000     0          
F578     F      0.323200000000     0.323200000000     0.278800000000     0          
O579     O      0.451500000000     0.451500000000     0.259700000000     0          
O580     O      0.399170000000     0.399170000000     0.385100000000     0          
F581     F      0.464300000000     0.464300000000     0.103000000000     0          
Zr582    Zr     0.455210000000     0.455210000000     0.393090000000     0          
C583     C      0.000000000000     0.391400000000     0.241300000000     0          
C584     C      0.000000000000     0.381000000000     0.321200000000     0          
C585     C      0.000000000000     0.424200000000     0.218300000000     0          
C586     C      0.000000000000     0.340700000000     0.342100000000     0          
C587     C      0.000000000000     0.432900000000     0.114700000000     0          
F588     F      0.000000000000     0.323200000000     0.278800000000     0          
O589     O      0.000000000000     0.451500000000     0.259700000000     0          
O590     O      0.000000000000     0.399170000000     0.385100000000     0          
Zr591    Zr     0.000000000000     0.455210000000     0.393090000000     0          
F592     F      0.000000000000     0.405500000000     0.079300000000     0          
C593     C      0.391400000000     0.000000000000     0.241300000000     0          
C594     C      0.381000000000     0.000000000000     0.321200000000     0          
C595     C      0.424200000000     0.000000000000     0.218300000000     0          
C596     C      0.340700000000     0.000000000000     0.342100000000     0          
C597     C      0.432900000000     0.000000000000     0.114700000000     0          
F598     F      0.333800000000     0.000000000000     0.414400000000     0          
O599     O      0.451500000000     0.000000000000     0.259700000000     0          
O600     O      0.399170000000     0.000000000000     0.385100000000     0          
F601     F      0.464300000000     0.000000000000     0.103000000000     0          
Zr602    Zr     0.455210000000     0.000000000000     0.393090000000     0          
C603     C      0.608600000000     0.608600000000     0.241300000000     0          
C604     C      0.619000000000     0.619000000000     0.321200000000     0          
C605     C      0.575800000000     0.575800000000     0.218300000000     0          
C606     C      0.659300000000     0.659300000000     0.342100000000     0          
C607     C      0.567100000000     0.567100000000     0.114700000000     0          
F608     F      0.666200000000     0.666200000000     0.414400000000     0          
O609     O      0.548500000000     0.548500000000     0.259700000000     0          
O610     O      0.600830000000     0.600830000000     0.385100000000     0          
F611     F      0.535700000000     0.535700000000     0.103000000000     0          
Zr612    Zr     0.544790000000     0.544790000000     0.393090000000     0          
O613     O      0.563100000000     0.034100000000     0.500000000000     0          
O614     O      0.965900000000     0.529000000000     0.500000000000     0          
O615     O      0.471000000000     0.436900000000     0.500000000000     0          
O616     O      0.436900000000     0.965900000000     0.500000000000     0          
O617     O      0.034100000000     0.471000000000     0.500000000000     0          
O618     O      0.529000000000     0.563100000000     0.500000000000     0          
O619     O      0.034100000000     0.563100000000     0.500000000000     0          
O620     O      0.529000000000     0.965900000000     0.500000000000     0          
O621     O      0.436900000000     0.471000000000     0.500000000000     0          
O622     O      0.965900000000     0.436900000000     0.500000000000     0          
O623     O      0.471000000000     0.034100000000     0.500000000000     0          
O624     O      0.563100000000     0.529000000000     0.500000000000     0          
O625     O      0.483050000000     0.966100000000     0.609300000000     0          
O626     O      0.033900000000     0.516950000000     0.609300000000     0          
O627     O      0.483050000000     0.516950000000     0.609300000000     0          
O628     O      0.516950000000     0.033900000000     0.609300000000     0          
O629     O      0.966100000000     0.483050000000     0.609300000000     0          
O630     O      0.516950000000     0.483050000000     0.609300000000     0          
O631     O      0.966100000000     0.483050000000     0.390700000000     0          
O632     O      0.516950000000     0.033900000000     0.390700000000     0          
O633     O      0.516950000000     0.483050000000     0.390700000000     0          
O634     O      0.033900000000     0.516950000000     0.390700000000     0          
O635     O      0.483050000000     0.966100000000     0.390700000000     0          
O636     O      0.483050000000     0.516950000000     0.390700000000     0          
Zr637    Zr     0.536580000000     0.073170000000     0.500000000000     0          
Zr638    Zr     0.926830000000     0.463410000000     0.500000000000     0          
Zr639    Zr     0.536590000000     0.463420000000     0.500000000000     0          
Zr640    Zr     0.463420000000     0.926830000000     0.500000000000     0          
Zr641    Zr     0.073170000000     0.536590000000     0.500000000000     0          
Zr642    Zr     0.463410000000     0.536580000000     0.500000000000     0          
H643     H      0.628260000000     0.628260000000     0.809550000000     0          
H644     H      0.628260000000     0.628260000000     0.190450000000     0          
H645     H      0.371740000000     0.371740000000     0.809550000000     0          
H646     H      0.371740000000     0.371740000000     0.190450000000     0          
H647     H      0.000000000000     0.371740000000     0.809550000000     0          
H648     H      0.000000000000     0.371740000000     0.190450000000     0          
H649     H      0.000000000000     0.628260000000     0.190450000000     0          
H650     H      0.000000000000     0.628260000000     0.809550000000     0          
H651     H      0.628260000000     0.000000000000     0.809550000000     0          
H652     H      0.371740000000     0.000000000000     0.809550000000     0          
H653     H      0.628260000000     0.000000000000     0.190450000000     0          
H654     H      0.371740000000     0.000000000000     0.190450000000     0          


