data_GERBEN

_audit_creation_method RASPA-1.0
_audit_creation_date 2020-11-2
_audit_author_name 'Rocio Bueno-Perez'

_cell_length_a    19.097
_cell_length_b    32.141
_cell_length_c    35.122
_cell_angle_alpha 90
_cell_angle_beta  90
_cell_angle_gamma 90
_cell_volume      21557.8

_symmetry_cell_setting          orthorhombic
_symmetry_space_group_name_Hall 'P 1'
_symmetry_space_group_name_H-M  'P 1'
_symmetry_Int_Tables_number     1

_symmetry_equiv_pos_as_xyz 'x,y,z'

loop_
_atom_site_label
_atom_site_type_symbol
_atom_site_fract_x
_atom_site_fract_y
_atom_site_fract_z
_atom_site_charge
O1       O      0.069100000000     0.040810000000     0.101460000000     0          
O2       O      0.126900000000     0.078190000000     0.058320000000     0          
C1       C      0.107200000000     0.068400000000     0.092560000000     0          
C2       C      0.142900000000     0.093800000000     0.123400000000     0          
C3       C      0.183900000000     0.126620000000     0.117610000000     0          
H1       H      0.192400000000     0.135100000000     0.092100000000     0          
C4       C      0.216400000000     0.150100000000     0.147800000000     0          
H2       H      0.247200000000     0.172700000000     0.142800000000     0          
C5       C      0.199600000000     0.137700000000     0.185300000000     0          
C6       C      0.159700000000     0.103700000000     0.190460000000     0          
H3       H      0.151000000000     0.094800000000     0.215800000000     0          
C7       C      0.130700000000     0.081000000000     0.160790000000     0          
H4       H      0.103000000000     0.057100000000     0.165900000000     0          
C8       C      0.226800000000     0.161990000000     0.218040000000     0          
C10      C      0.225700000000     0.204620000000     0.218170000000     0          
H6       H      0.208300000000     0.219100000000     0.196600000000     0          
Zr1      Zr     0.000000000000     0.000000000000     0.069680000000     0          
Zr2      Zr     0.092090000000     0.055120000000     0.000000000000     0          
O3       O      0.094300000000     0.000000000000     0.034200000000     0          
O4       O      0.000000000000     0.056100000000     0.034500000000     0          
C9       C      0.250000000000     0.140300000000     0.250000000000     0          
H5       H      0.250000000000     0.110700000000     0.250000000000     0          
C11      C      0.250000000000     0.227300000000     0.250000000000     0          
O1       O      0.930900000000     0.959190000000     0.101460000000     0          
O2       O      0.873100000000     0.921810000000     0.058320000000     0          
C1       C      0.892800000000     0.931600000000     0.092560000000     0          
C2       C      0.857100000000     0.906200000000     0.123400000000     0          
C3       C      0.816100000000     0.873380000000     0.117610000000     0          
H1       H      0.807600000000     0.864900000000     0.092100000000     0          
C4       C      0.783600000000     0.849900000000     0.147800000000     0          
H2       H      0.752800000000     0.827300000000     0.142800000000     0          
C5       C      0.800400000000     0.862300000000     0.185300000000     0          
C6       C      0.840300000000     0.896300000000     0.190460000000     0          
H3       H      0.849000000000     0.905200000000     0.215800000000     0          
C7       C      0.869300000000     0.919000000000     0.160790000000     0          
H4       H      0.897000000000     0.942900000000     0.165900000000     0          
C8       C      0.773200000000     0.838010000000     0.218040000000     0          
C10      C      0.774300000000     0.795380000000     0.218170000000     0          
H6       H      0.791700000000     0.780900000000     0.196600000000     0          
Zr2      Zr     0.907910000000     0.944880000000     0.000000000000     0          
O3       O      0.905700000000     0.000000000000     0.034200000000     0          
O4       O      0.000000000000     0.943900000000     0.034500000000     0          
C9       C      0.750000000000     0.859700000000     0.250000000000     0          
H5       H      0.750000000000     0.889300000000     0.250000000000     0          
C11      C      0.750000000000     0.772700000000     0.250000000000     0          
O1       O      0.069100000000     0.959190000000     0.898540000000     0          
O2       O      0.126900000000     0.921810000000     0.941680000000     0          
C1       C      0.107200000000     0.931600000000     0.907440000000     0          
C2       C      0.142900000000     0.906200000000     0.876600000000     0          
C3       C      0.183900000000     0.873380000000     0.882390000000     0          
H1       H      0.192400000000     0.864900000000     0.907900000000     0          
C4       C      0.216400000000     0.849900000000     0.852200000000     0          
H2       H      0.247200000000     0.827300000000     0.857200000000     0          
C5       C      0.199600000000     0.862300000000     0.814700000000     0          
C6       C      0.159700000000     0.896300000000     0.809540000000     0          
H3       H      0.151000000000     0.905200000000     0.784200000000     0          
C7       C      0.130700000000     0.919000000000     0.839210000000     0          
H4       H      0.103000000000     0.942900000000     0.834100000000     0          
C8       C      0.226800000000     0.838010000000     0.781960000000     0          
C10      C      0.225700000000     0.795380000000     0.781830000000     0          
H6       H      0.208300000000     0.780900000000     0.803400000000     0          
Zr1      Zr     0.000000000000     0.000000000000     0.930320000000     0          
Zr2      Zr     0.092090000000     0.944880000000     0.000000000000     0          
O3       O      0.094300000000     0.000000000000     0.965800000000     0          
O4       O      0.000000000000     0.943900000000     0.965500000000     0          
C9       C      0.250000000000     0.859700000000     0.750000000000     0          
H5       H      0.250000000000     0.889300000000     0.750000000000     0          
C11      C      0.250000000000     0.772700000000     0.750000000000     0          
O1       O      0.930900000000     0.040810000000     0.898540000000     0          
O2       O      0.873100000000     0.078190000000     0.941680000000     0          
C1       C      0.892800000000     0.068400000000     0.907440000000     0          
C2       C      0.857100000000     0.093800000000     0.876600000000     0          
C3       C      0.816100000000     0.126620000000     0.882390000000     0          
H1       H      0.807600000000     0.135100000000     0.907900000000     0          
C4       C      0.783600000000     0.150100000000     0.852200000000     0          
H2       H      0.752800000000     0.172700000000     0.857200000000     0          
C5       C      0.800400000000     0.137700000000     0.814700000000     0          
C6       C      0.840300000000     0.103700000000     0.809540000000     0          
H3       H      0.849000000000     0.094800000000     0.784200000000     0          
C7       C      0.869300000000     0.081000000000     0.839210000000     0          
H4       H      0.897000000000     0.057100000000     0.834100000000     0          
C8       C      0.773200000000     0.161990000000     0.781960000000     0          
C10      C      0.774300000000     0.204620000000     0.781830000000     0          
H6       H      0.791700000000     0.219100000000     0.803400000000     0          
Zr2      Zr     0.907910000000     0.055120000000     0.000000000000     0          
O3       O      0.905700000000     0.000000000000     0.965800000000     0          
O4       O      0.000000000000     0.056100000000     0.965500000000     0          
C9       C      0.750000000000     0.140300000000     0.750000000000     0          
H5       H      0.750000000000     0.110700000000     0.750000000000     0          
C11      C      0.750000000000     0.227300000000     0.750000000000     0          
O1       O      0.930900000000     0.959190000000     0.898540000000     0          
O2       O      0.873100000000     0.921810000000     0.941680000000     0          
C1       C      0.892800000000     0.931600000000     0.907440000000     0          
C2       C      0.857100000000     0.906200000000     0.876600000000     0          
C3       C      0.816100000000     0.873380000000     0.882390000000     0          
H1       H      0.807600000000     0.864900000000     0.907900000000     0          
C4       C      0.783600000000     0.849900000000     0.852200000000     0          
H2       H      0.752800000000     0.827300000000     0.857200000000     0          
C5       C      0.800400000000     0.862300000000     0.814700000000     0          
C6       C      0.840300000000     0.896300000000     0.809540000000     0          
H3       H      0.849000000000     0.905200000000     0.784200000000     0          
C7       C      0.869300000000     0.919000000000     0.839210000000     0          
H4       H      0.897000000000     0.942900000000     0.834100000000     0          
C8       C      0.773200000000     0.838010000000     0.781960000000     0          
C10      C      0.774300000000     0.795380000000     0.781830000000     0          
H6       H      0.791700000000     0.780900000000     0.803400000000     0          
C9       C      0.750000000000     0.859700000000     0.750000000000     0          
H5       H      0.750000000000     0.889300000000     0.750000000000     0          
C11      C      0.750000000000     0.772700000000     0.750000000000     0          
O1       O      0.069100000000     0.040810000000     0.898540000000     0          
O2       O      0.126900000000     0.078190000000     0.941680000000     0          
C1       C      0.107200000000     0.068400000000     0.907440000000     0          
C2       C      0.142900000000     0.093800000000     0.876600000000     0          
C3       C      0.183900000000     0.126620000000     0.882390000000     0          
H1       H      0.192400000000     0.135100000000     0.907900000000     0          
C4       C      0.216400000000     0.150100000000     0.852200000000     0          
H2       H      0.247200000000     0.172700000000     0.857200000000     0          
C5       C      0.199600000000     0.137700000000     0.814700000000     0          
C6       C      0.159700000000     0.103700000000     0.809540000000     0          
H3       H      0.151000000000     0.094800000000     0.784200000000     0          
C7       C      0.130700000000     0.081000000000     0.839210000000     0          
H4       H      0.103000000000     0.057100000000     0.834100000000     0          
C8       C      0.226800000000     0.161990000000     0.781960000000     0          
C10      C      0.225700000000     0.204620000000     0.781830000000     0          
H6       H      0.208300000000     0.219100000000     0.803400000000     0          
C9       C      0.250000000000     0.140300000000     0.750000000000     0          
H5       H      0.250000000000     0.110700000000     0.750000000000     0          
C11      C      0.250000000000     0.227300000000     0.750000000000     0          
O1       O      0.930900000000     0.040810000000     0.101460000000     0          
O2       O      0.873100000000     0.078190000000     0.058320000000     0          
C1       C      0.892800000000     0.068400000000     0.092560000000     0          
C2       C      0.857100000000     0.093800000000     0.123400000000     0          
C3       C      0.816100000000     0.126620000000     0.117610000000     0          
H1       H      0.807600000000     0.135100000000     0.092100000000     0          
C4       C      0.783600000000     0.150100000000     0.147800000000     0          
H2       H      0.752800000000     0.172700000000     0.142800000000     0          
C5       C      0.800400000000     0.137700000000     0.185300000000     0          
C6       C      0.840300000000     0.103700000000     0.190460000000     0          
H3       H      0.849000000000     0.094800000000     0.215800000000     0          
C7       C      0.869300000000     0.081000000000     0.160790000000     0          
H4       H      0.897000000000     0.057100000000     0.165900000000     0          
C8       C      0.773200000000     0.161990000000     0.218040000000     0          
C10      C      0.774300000000     0.204620000000     0.218170000000     0          
H6       H      0.791700000000     0.219100000000     0.196600000000     0          
C9       C      0.750000000000     0.140300000000     0.250000000000     0          
H5       H      0.750000000000     0.110700000000     0.250000000000     0          
C11      C      0.750000000000     0.227300000000     0.250000000000     0          
O1       O      0.069100000000     0.959190000000     0.101460000000     0          
O2       O      0.126900000000     0.921810000000     0.058320000000     0          
C1       C      0.107200000000     0.931600000000     0.092560000000     0          
C2       C      0.142900000000     0.906200000000     0.123400000000     0          
C3       C      0.183900000000     0.873380000000     0.117610000000     0          
H1       H      0.192400000000     0.864900000000     0.092100000000     0          
C4       C      0.216400000000     0.849900000000     0.147800000000     0          
H2       H      0.247200000000     0.827300000000     0.142800000000     0          
C5       C      0.199600000000     0.862300000000     0.185300000000     0          
C6       C      0.159700000000     0.896300000000     0.190460000000     0          
H3       H      0.151000000000     0.905200000000     0.215800000000     0          
C7       C      0.130700000000     0.919000000000     0.160790000000     0          
H4       H      0.103000000000     0.942900000000     0.165900000000     0          
C8       C      0.226800000000     0.838010000000     0.218040000000     0          
C10      C      0.225700000000     0.795380000000     0.218170000000     0          
H6       H      0.208300000000     0.780900000000     0.196600000000     0          
C9       C      0.250000000000     0.859700000000     0.250000000000     0          
H5       H      0.250000000000     0.889300000000     0.250000000000     0          
C11      C      0.250000000000     0.772700000000     0.250000000000     0          
O1       O      0.069100000000     0.540810000000     0.601460000000     0          
O2       O      0.126900000000     0.578190000000     0.558320000000     0          
C1       C      0.107200000000     0.568400000000     0.592560000000     0          
C2       C      0.142900000000     0.593800000000     0.623400000000     0          
C3       C      0.183900000000     0.626620000000     0.617610000000     0          
H1       H      0.192400000000     0.635100000000     0.592100000000     0          
C4       C      0.216400000000     0.650100000000     0.647800000000     0          
H2       H      0.247200000000     0.672700000000     0.642800000000     0          
C5       C      0.199600000000     0.637700000000     0.685300000000     0          
C6       C      0.159700000000     0.603700000000     0.690460000000     0          
H3       H      0.151000000000     0.594800000000     0.715800000000     0          
C7       C      0.130700000000     0.581000000000     0.660790000000     0          
H4       H      0.103000000000     0.557100000000     0.665900000000     0          
C8       C      0.226800000000     0.661990000000     0.718040000000     0          
C10      C      0.225700000000     0.704620000000     0.718170000000     0          
H6       H      0.208300000000     0.719100000000     0.696600000000     0          
Zr1      Zr     0.000000000000     0.500000000000     0.569680000000     0          
Zr2      Zr     0.092090000000     0.555120000000     0.500000000000     0          
O3       O      0.094300000000     0.500000000000     0.534200000000     0          
O4       O      0.000000000000     0.556100000000     0.534500000000     0          
C9       C      0.250000000000     0.640300000000     0.750000000000     0          
H5       H      0.250000000000     0.610700000000     0.750000000000     0          
C11      C      0.250000000000     0.727300000000     0.750000000000     0          
O1       O      0.930900000000     0.459190000000     0.601460000000     0          
O2       O      0.873100000000     0.421810000000     0.558320000000     0          
C1       C      0.892800000000     0.431600000000     0.592560000000     0          
C2       C      0.857100000000     0.406200000000     0.623400000000     0          
C3       C      0.816100000000     0.373380000000     0.617610000000     0          
H1       H      0.807600000000     0.364900000000     0.592100000000     0          
C4       C      0.783600000000     0.349900000000     0.647800000000     0          
H2       H      0.752800000000     0.327300000000     0.642800000000     0          
C5       C      0.800400000000     0.362300000000     0.685300000000     0          
C6       C      0.840300000000     0.396300000000     0.690460000000     0          
H3       H      0.849000000000     0.405200000000     0.715800000000     0          
C7       C      0.869300000000     0.419000000000     0.660790000000     0          
H4       H      0.897000000000     0.442900000000     0.665900000000     0          
C8       C      0.773200000000     0.338010000000     0.718040000000     0          
C10      C      0.774300000000     0.295380000000     0.718170000000     0          
H6       H      0.791700000000     0.280900000000     0.696600000000     0          
Zr2      Zr     0.907910000000     0.444880000000     0.500000000000     0          
O3       O      0.905700000000     0.500000000000     0.534200000000     0          
O4       O      0.000000000000     0.443900000000     0.534500000000     0          
C9       C      0.750000000000     0.359700000000     0.750000000000     0          
H5       H      0.750000000000     0.389300000000     0.750000000000     0          
C11      C      0.750000000000     0.272700000000     0.750000000000     0          
O1       O      0.069100000000     0.459190000000     0.398540000000     0          
O2       O      0.126900000000     0.421810000000     0.441680000000     0          
C1       C      0.107200000000     0.431600000000     0.407440000000     0          
C2       C      0.142900000000     0.406200000000     0.376600000000     0          
C3       C      0.183900000000     0.373380000000     0.382390000000     0          
H1       H      0.192400000000     0.364900000000     0.407900000000     0          
C4       C      0.216400000000     0.349900000000     0.352200000000     0          
H2       H      0.247200000000     0.327300000000     0.357200000000     0          
C5       C      0.199600000000     0.362300000000     0.314700000000     0          
C6       C      0.159700000000     0.396300000000     0.309540000000     0          
H3       H      0.151000000000     0.405200000000     0.284200000000     0          
C7       C      0.130700000000     0.419000000000     0.339210000000     0          
H4       H      0.103000000000     0.442900000000     0.334100000000     0          
C8       C      0.226800000000     0.338010000000     0.281960000000     0          
C10      C      0.225700000000     0.295380000000     0.281830000000     0          
H6       H      0.208300000000     0.280900000000     0.303400000000     0          
Zr1      Zr     0.000000000000     0.500000000000     0.430320000000     0          
Zr2      Zr     0.092090000000     0.444880000000     0.500000000000     0          
O3       O      0.094300000000     0.500000000000     0.465800000000     0          
O4       O      0.000000000000     0.443900000000     0.465500000000     0          
C9       C      0.250000000000     0.359700000000     0.250000000000     0          
H5       H      0.250000000000     0.389300000000     0.250000000000     0          
C11      C      0.250000000000     0.272700000000     0.250000000000     0          
O1       O      0.930900000000     0.540810000000     0.398540000000     0          
O2       O      0.873100000000     0.578190000000     0.441680000000     0          
C1       C      0.892800000000     0.568400000000     0.407440000000     0          
C2       C      0.857100000000     0.593800000000     0.376600000000     0          
C3       C      0.816100000000     0.626620000000     0.382390000000     0          
H1       H      0.807600000000     0.635100000000     0.407900000000     0          
C4       C      0.783600000000     0.650100000000     0.352200000000     0          
H2       H      0.752800000000     0.672700000000     0.357200000000     0          
C5       C      0.800400000000     0.637700000000     0.314700000000     0          
C6       C      0.840300000000     0.603700000000     0.309540000000     0          
H3       H      0.849000000000     0.594800000000     0.284200000000     0          
C7       C      0.869300000000     0.581000000000     0.339210000000     0          
H4       H      0.897000000000     0.557100000000     0.334100000000     0          
C8       C      0.773200000000     0.661990000000     0.281960000000     0          
C10      C      0.774300000000     0.704620000000     0.281830000000     0          
H6       H      0.791700000000     0.719100000000     0.303400000000     0          
Zr2      Zr     0.907910000000     0.555120000000     0.500000000000     0          
O3       O      0.905700000000     0.500000000000     0.465800000000     0          
O4       O      0.000000000000     0.556100000000     0.465500000000     0          
C9       C      0.750000000000     0.640300000000     0.250000000000     0          
H5       H      0.750000000000     0.610700000000     0.250000000000     0          
C11      C      0.750000000000     0.727300000000     0.250000000000     0          
O1       O      0.930900000000     0.459190000000     0.398540000000     0          
O2       O      0.873100000000     0.421810000000     0.441680000000     0          
C1       C      0.892800000000     0.431600000000     0.407440000000     0          
C2       C      0.857100000000     0.406200000000     0.376600000000     0          
C3       C      0.816100000000     0.373380000000     0.382390000000     0          
H1       H      0.807600000000     0.364900000000     0.407900000000     0          
C4       C      0.783600000000     0.349900000000     0.352200000000     0          
H2       H      0.752800000000     0.327300000000     0.357200000000     0          
C5       C      0.800400000000     0.362300000000     0.314700000000     0          
C6       C      0.840300000000     0.396300000000     0.309540000000     0          
H3       H      0.849000000000     0.405200000000     0.284200000000     0          
C7       C      0.869300000000     0.419000000000     0.339210000000     0          
H4       H      0.897000000000     0.442900000000     0.334100000000     0          
C8       C      0.773200000000     0.338010000000     0.281960000000     0          
C10      C      0.774300000000     0.295380000000     0.281830000000     0          
H6       H      0.791700000000     0.280900000000     0.303400000000     0          
C9       C      0.750000000000     0.359700000000     0.250000000000     0          
H5       H      0.750000000000     0.389300000000     0.250000000000     0          
C11      C      0.750000000000     0.272700000000     0.250000000000     0          
O1       O      0.069100000000     0.540810000000     0.398540000000     0          
O2       O      0.126900000000     0.578190000000     0.441680000000     0          
C1       C      0.107200000000     0.568400000000     0.407440000000     0          
C2       C      0.142900000000     0.593800000000     0.376600000000     0          
C3       C      0.183900000000     0.626620000000     0.382390000000     0          
H1       H      0.192400000000     0.635100000000     0.407900000000     0          
C4       C      0.216400000000     0.650100000000     0.352200000000     0          
H2       H      0.247200000000     0.672700000000     0.357200000000     0          
C5       C      0.199600000000     0.637700000000     0.314700000000     0          
C6       C      0.159700000000     0.603700000000     0.309540000000     0          
H3       H      0.151000000000     0.594800000000     0.284200000000     0          
C7       C      0.130700000000     0.581000000000     0.339210000000     0          
H4       H      0.103000000000     0.557100000000     0.334100000000     0          
C8       C      0.226800000000     0.661990000000     0.281960000000     0          
C10      C      0.225700000000     0.704620000000     0.281830000000     0          
H6       H      0.208300000000     0.719100000000     0.303400000000     0          
C9       C      0.250000000000     0.640300000000     0.250000000000     0          
H5       H      0.250000000000     0.610700000000     0.250000000000     0          
C11      C      0.250000000000     0.727300000000     0.250000000000     0          
O1       O      0.930900000000     0.540810000000     0.601460000000     0          
O2       O      0.873100000000     0.578190000000     0.558320000000     0          
C1       C      0.892800000000     0.568400000000     0.592560000000     0          
C2       C      0.857100000000     0.593800000000     0.623400000000     0          
C3       C      0.816100000000     0.626620000000     0.617610000000     0          
H1       H      0.807600000000     0.635100000000     0.592100000000     0          
C4       C      0.783600000000     0.650100000000     0.647800000000     0          
H2       H      0.752800000000     0.672700000000     0.642800000000     0          
C5       C      0.800400000000     0.637700000000     0.685300000000     0          
C6       C      0.840300000000     0.603700000000     0.690460000000     0          
H3       H      0.849000000000     0.594800000000     0.715800000000     0          
C7       C      0.869300000000     0.581000000000     0.660790000000     0          
H4       H      0.897000000000     0.557100000000     0.665900000000     0          
C8       C      0.773200000000     0.661990000000     0.718040000000     0          
C10      C      0.774300000000     0.704620000000     0.718170000000     0          
H6       H      0.791700000000     0.719100000000     0.696600000000     0          
C9       C      0.750000000000     0.640300000000     0.750000000000     0          
H5       H      0.750000000000     0.610700000000     0.750000000000     0          
C11      C      0.750000000000     0.727300000000     0.750000000000     0          
O1       O      0.069100000000     0.459190000000     0.601460000000     0          
O2       O      0.126900000000     0.421810000000     0.558320000000     0          
C1       C      0.107200000000     0.431600000000     0.592560000000     0          
C2       C      0.142900000000     0.406200000000     0.623400000000     0          
C3       C      0.183900000000     0.373380000000     0.617610000000     0          
H1       H      0.192400000000     0.364900000000     0.592100000000     0          
C4       C      0.216400000000     0.349900000000     0.647800000000     0          
H2       H      0.247200000000     0.327300000000     0.642800000000     0          
C5       C      0.199600000000     0.362300000000     0.685300000000     0          
C6       C      0.159700000000     0.396300000000     0.690460000000     0          
H3       H      0.151000000000     0.405200000000     0.715800000000     0          
C7       C      0.130700000000     0.419000000000     0.660790000000     0          
H4       H      0.103000000000     0.442900000000     0.665900000000     0          
C8       C      0.226800000000     0.338010000000     0.718040000000     0          
C10      C      0.225700000000     0.295380000000     0.718170000000     0          
H6       H      0.208300000000     0.280900000000     0.696600000000     0          
C9       C      0.250000000000     0.359700000000     0.750000000000     0          
H5       H      0.250000000000     0.389300000000     0.750000000000     0          
C11      C      0.250000000000     0.272700000000     0.750000000000     0          
O1       O      0.569100000000     0.040810000000     0.601460000000     0          
O2       O      0.626900000000     0.078190000000     0.558320000000     0          
C1       C      0.607200000000     0.068400000000     0.592560000000     0          
C2       C      0.642900000000     0.093800000000     0.623400000000     0          
C3       C      0.683900000000     0.126620000000     0.617610000000     0          
H1       H      0.692400000000     0.135100000000     0.592100000000     0          
C4       C      0.716400000000     0.150100000000     0.647800000000     0          
H2       H      0.747200000000     0.172700000000     0.642800000000     0          
C5       C      0.699600000000     0.137700000000     0.685300000000     0          
C6       C      0.659700000000     0.103700000000     0.690460000000     0          
H3       H      0.651000000000     0.094800000000     0.715800000000     0          
C7       C      0.630700000000     0.081000000000     0.660790000000     0          
H4       H      0.603000000000     0.057100000000     0.665900000000     0          
C8       C      0.726800000000     0.161990000000     0.718040000000     0          
C10      C      0.725700000000     0.204620000000     0.718170000000     0          
H6       H      0.708300000000     0.219100000000     0.696600000000     0          
Zr1      Zr     0.500000000000     0.000000000000     0.569680000000     0          
Zr2      Zr     0.592090000000     0.055120000000     0.500000000000     0          
O3       O      0.594300000000     0.000000000000     0.534200000000     0          
O4       O      0.500000000000     0.056100000000     0.534500000000     0          
O1       O      0.430900000000     0.959190000000     0.601460000000     0          
O2       O      0.373100000000     0.921810000000     0.558320000000     0          
C1       C      0.392800000000     0.931600000000     0.592560000000     0          
C2       C      0.357100000000     0.906200000000     0.623400000000     0          
C3       C      0.316100000000     0.873380000000     0.617610000000     0          
H1       H      0.307600000000     0.864900000000     0.592100000000     0          
C4       C      0.283600000000     0.849900000000     0.647800000000     0          
H2       H      0.252800000000     0.827300000000     0.642800000000     0          
C5       C      0.300400000000     0.862300000000     0.685300000000     0          
C6       C      0.340300000000     0.896300000000     0.690460000000     0          
H3       H      0.349000000000     0.905200000000     0.715800000000     0          
C7       C      0.369300000000     0.919000000000     0.660790000000     0          
H4       H      0.397000000000     0.942900000000     0.665900000000     0          
C8       C      0.273200000000     0.838010000000     0.718040000000     0          
C10      C      0.274300000000     0.795380000000     0.718170000000     0          
H6       H      0.291700000000     0.780900000000     0.696600000000     0          
Zr2      Zr     0.407910000000     0.944880000000     0.500000000000     0          
O3       O      0.405700000000     0.000000000000     0.534200000000     0          
O4       O      0.500000000000     0.943900000000     0.534500000000     0          
O1       O      0.569100000000     0.959190000000     0.398540000000     0          
O2       O      0.626900000000     0.921810000000     0.441680000000     0          
C1       C      0.607200000000     0.931600000000     0.407440000000     0          
C2       C      0.642900000000     0.906200000000     0.376600000000     0          
C3       C      0.683900000000     0.873380000000     0.382390000000     0          
H1       H      0.692400000000     0.864900000000     0.407900000000     0          
C4       C      0.716400000000     0.849900000000     0.352200000000     0          
H2       H      0.747200000000     0.827300000000     0.357200000000     0          
C5       C      0.699600000000     0.862300000000     0.314700000000     0          
C6       C      0.659700000000     0.896300000000     0.309540000000     0          
H3       H      0.651000000000     0.905200000000     0.284200000000     0          
C7       C      0.630700000000     0.919000000000     0.339210000000     0          
H4       H      0.603000000000     0.942900000000     0.334100000000     0          
C8       C      0.726800000000     0.838010000000     0.281960000000     0          
C10      C      0.725700000000     0.795380000000     0.281830000000     0          
H6       H      0.708300000000     0.780900000000     0.303400000000     0          
Zr1      Zr     0.500000000000     0.000000000000     0.430320000000     0          
Zr2      Zr     0.592090000000     0.944880000000     0.500000000000     0          
O3       O      0.594300000000     0.000000000000     0.465800000000     0          
O4       O      0.500000000000     0.943900000000     0.465500000000     0          
O1       O      0.430900000000     0.040810000000     0.398540000000     0          
O2       O      0.373100000000     0.078190000000     0.441680000000     0          
C1       C      0.392800000000     0.068400000000     0.407440000000     0          
C2       C      0.357100000000     0.093800000000     0.376600000000     0          
C3       C      0.316100000000     0.126620000000     0.382390000000     0          
H1       H      0.307600000000     0.135100000000     0.407900000000     0          
C4       C      0.283600000000     0.150100000000     0.352200000000     0          
H2       H      0.252800000000     0.172700000000     0.357200000000     0          
C5       C      0.300400000000     0.137700000000     0.314700000000     0          
C6       C      0.340300000000     0.103700000000     0.309540000000     0          
H3       H      0.349000000000     0.094800000000     0.284200000000     0          
C7       C      0.369300000000     0.081000000000     0.339210000000     0          
H4       H      0.397000000000     0.057100000000     0.334100000000     0          
C8       C      0.273200000000     0.161990000000     0.281960000000     0          
C10      C      0.274300000000     0.204620000000     0.281830000000     0          
H6       H      0.291700000000     0.219100000000     0.303400000000     0          
Zr2      Zr     0.407910000000     0.055120000000     0.500000000000     0          
O3       O      0.405700000000     0.000000000000     0.465800000000     0          
O4       O      0.500000000000     0.056100000000     0.465500000000     0          
O1       O      0.430900000000     0.959190000000     0.398540000000     0          
O2       O      0.373100000000     0.921810000000     0.441680000000     0          
C1       C      0.392800000000     0.931600000000     0.407440000000     0          
C2       C      0.357100000000     0.906200000000     0.376600000000     0          
C3       C      0.316100000000     0.873380000000     0.382390000000     0          
H1       H      0.307600000000     0.864900000000     0.407900000000     0          
C4       C      0.283600000000     0.849900000000     0.352200000000     0          
H2       H      0.252800000000     0.827300000000     0.357200000000     0          
C5       C      0.300400000000     0.862300000000     0.314700000000     0          
C6       C      0.340300000000     0.896300000000     0.309540000000     0          
H3       H      0.349000000000     0.905200000000     0.284200000000     0          
C7       C      0.369300000000     0.919000000000     0.339210000000     0          
H4       H      0.397000000000     0.942900000000     0.334100000000     0          
C8       C      0.273200000000     0.838010000000     0.281960000000     0          
C10      C      0.274300000000     0.795380000000     0.281830000000     0          
H6       H      0.291700000000     0.780900000000     0.303400000000     0          
O1       O      0.569100000000     0.040810000000     0.398540000000     0          
O2       O      0.626900000000     0.078190000000     0.441680000000     0          
C1       C      0.607200000000     0.068400000000     0.407440000000     0          
C2       C      0.642900000000     0.093800000000     0.376600000000     0          
C3       C      0.683900000000     0.126620000000     0.382390000000     0          
H1       H      0.692400000000     0.135100000000     0.407900000000     0          
C4       C      0.716400000000     0.150100000000     0.352200000000     0          
H2       H      0.747200000000     0.172700000000     0.357200000000     0          
C5       C      0.699600000000     0.137700000000     0.314700000000     0          
C6       C      0.659700000000     0.103700000000     0.309540000000     0          
H3       H      0.651000000000     0.094800000000     0.284200000000     0          
C7       C      0.630700000000     0.081000000000     0.339210000000     0          
H4       H      0.603000000000     0.057100000000     0.334100000000     0          
C8       C      0.726800000000     0.161990000000     0.281960000000     0          
C10      C      0.725700000000     0.204620000000     0.281830000000     0          
H6       H      0.708300000000     0.219100000000     0.303400000000     0          
O1       O      0.430900000000     0.040810000000     0.601460000000     0          
O2       O      0.373100000000     0.078190000000     0.558320000000     0          
C1       C      0.392800000000     0.068400000000     0.592560000000     0          
C2       C      0.357100000000     0.093800000000     0.623400000000     0          
C3       C      0.316100000000     0.126620000000     0.617610000000     0          
H1       H      0.307600000000     0.135100000000     0.592100000000     0          
C4       C      0.283600000000     0.150100000000     0.647800000000     0          
H2       H      0.252800000000     0.172700000000     0.642800000000     0          
C5       C      0.300400000000     0.137700000000     0.685300000000     0          
C6       C      0.340300000000     0.103700000000     0.690460000000     0          
H3       H      0.349000000000     0.094800000000     0.715800000000     0          
C7       C      0.369300000000     0.081000000000     0.660790000000     0          
H4       H      0.397000000000     0.057100000000     0.665900000000     0          
C8       C      0.273200000000     0.161990000000     0.718040000000     0          
C10      C      0.274300000000     0.204620000000     0.718170000000     0          
H6       H      0.291700000000     0.219100000000     0.696600000000     0          
O1       O      0.569100000000     0.959190000000     0.601460000000     0          
O2       O      0.626900000000     0.921810000000     0.558320000000     0          
C1       C      0.607200000000     0.931600000000     0.592560000000     0          
C2       C      0.642900000000     0.906200000000     0.623400000000     0          
C3       C      0.683900000000     0.873380000000     0.617610000000     0          
H1       H      0.692400000000     0.864900000000     0.592100000000     0          
C4       C      0.716400000000     0.849900000000     0.647800000000     0          
H2       H      0.747200000000     0.827300000000     0.642800000000     0          
C5       C      0.699600000000     0.862300000000     0.685300000000     0          
C6       C      0.659700000000     0.896300000000     0.690460000000     0          
H3       H      0.651000000000     0.905200000000     0.715800000000     0          
C7       C      0.630700000000     0.919000000000     0.660790000000     0          
H4       H      0.603000000000     0.942900000000     0.665900000000     0          
C8       C      0.726800000000     0.838010000000     0.718040000000     0          
C10      C      0.725700000000     0.795380000000     0.718170000000     0          
H6       H      0.708300000000     0.780900000000     0.696600000000     0          
O1       O      0.569100000000     0.540810000000     0.101460000000     0          
O2       O      0.626900000000     0.578190000000     0.058320000000     0          
C1       C      0.607200000000     0.568400000000     0.092560000000     0          
C2       C      0.642900000000     0.593800000000     0.123400000000     0          
C3       C      0.683900000000     0.626620000000     0.117610000000     0          
H1       H      0.692400000000     0.635100000000     0.092100000000     0          
C4       C      0.716400000000     0.650100000000     0.147800000000     0          
H2       H      0.747200000000     0.672700000000     0.142800000000     0          
C5       C      0.699600000000     0.637700000000     0.185300000000     0          
C6       C      0.659700000000     0.603700000000     0.190460000000     0          
H3       H      0.651000000000     0.594800000000     0.215800000000     0          
C7       C      0.630700000000     0.581000000000     0.160790000000     0          
H4       H      0.603000000000     0.557100000000     0.165900000000     0          
C8       C      0.726800000000     0.661990000000     0.218040000000     0          
C10      C      0.725700000000     0.704620000000     0.218170000000     0          
H6       H      0.708300000000     0.719100000000     0.196600000000     0          
Zr1      Zr     0.500000000000     0.500000000000     0.069680000000     0          
Zr2      Zr     0.592090000000     0.555120000000     0.000000000000     0          
O3       O      0.594300000000     0.500000000000     0.034200000000     0          
O4       O      0.500000000000     0.556100000000     0.034500000000     0          
O1       O      0.430900000000     0.459190000000     0.101460000000     0          
O2       O      0.373100000000     0.421810000000     0.058320000000     0          
C1       C      0.392800000000     0.431600000000     0.092560000000     0          
C2       C      0.357100000000     0.406200000000     0.123400000000     0          
C3       C      0.316100000000     0.373380000000     0.117610000000     0          
H1       H      0.307600000000     0.364900000000     0.092100000000     0          
C4       C      0.283600000000     0.349900000000     0.147800000000     0          
H2       H      0.252800000000     0.327300000000     0.142800000000     0          
C5       C      0.300400000000     0.362300000000     0.185300000000     0          
C6       C      0.340300000000     0.396300000000     0.190460000000     0          
H3       H      0.349000000000     0.405200000000     0.215800000000     0          
C7       C      0.369300000000     0.419000000000     0.160790000000     0          
H4       H      0.397000000000     0.442900000000     0.165900000000     0          
C8       C      0.273200000000     0.338010000000     0.218040000000     0          
C10      C      0.274300000000     0.295380000000     0.218170000000     0          
H6       H      0.291700000000     0.280900000000     0.196600000000     0          
Zr2      Zr     0.407910000000     0.444880000000     0.000000000000     0          
O3       O      0.405700000000     0.500000000000     0.034200000000     0          
O4       O      0.500000000000     0.443900000000     0.034500000000     0          
O1       O      0.569100000000     0.459190000000     0.898540000000     0          
O2       O      0.626900000000     0.421810000000     0.941680000000     0          
C1       C      0.607200000000     0.431600000000     0.907440000000     0          
C2       C      0.642900000000     0.406200000000     0.876600000000     0          
C3       C      0.683900000000     0.373380000000     0.882390000000     0          
H1       H      0.692400000000     0.364900000000     0.907900000000     0          
C4       C      0.716400000000     0.349900000000     0.852200000000     0          
H2       H      0.747200000000     0.327300000000     0.857200000000     0          
C5       C      0.699600000000     0.362300000000     0.814700000000     0          
C6       C      0.659700000000     0.396300000000     0.809540000000     0          
H3       H      0.651000000000     0.405200000000     0.784200000000     0          
C7       C      0.630700000000     0.419000000000     0.839210000000     0          
H4       H      0.603000000000     0.442900000000     0.834100000000     0          
C8       C      0.726800000000     0.338010000000     0.781960000000     0          
C10      C      0.725700000000     0.295380000000     0.781830000000     0          
H6       H      0.708300000000     0.280900000000     0.803400000000     0          
Zr1      Zr     0.500000000000     0.500000000000     0.930320000000     0          
Zr2      Zr     0.592090000000     0.444880000000     0.000000000000     0          
O3       O      0.594300000000     0.500000000000     0.965800000000     0          
O4       O      0.500000000000     0.443900000000     0.965500000000     0          
O1       O      0.430900000000     0.540810000000     0.898540000000     0          
O2       O      0.373100000000     0.578190000000     0.941680000000     0          
C1       C      0.392800000000     0.568400000000     0.907440000000     0          
C2       C      0.357100000000     0.593800000000     0.876600000000     0          
C3       C      0.316100000000     0.626620000000     0.882390000000     0          
H1       H      0.307600000000     0.635100000000     0.907900000000     0          
C4       C      0.283600000000     0.650100000000     0.852200000000     0          
H2       H      0.252800000000     0.672700000000     0.857200000000     0          
C5       C      0.300400000000     0.637700000000     0.814700000000     0          
C6       C      0.340300000000     0.603700000000     0.809540000000     0          
H3       H      0.349000000000     0.594800000000     0.784200000000     0          
C7       C      0.369300000000     0.581000000000     0.839210000000     0          
H4       H      0.397000000000     0.557100000000     0.834100000000     0          
C8       C      0.273200000000     0.661990000000     0.781960000000     0          
C10      C      0.274300000000     0.704620000000     0.781830000000     0          
H6       H      0.291700000000     0.719100000000     0.803400000000     0          
Zr2      Zr     0.407910000000     0.555120000000     0.000000000000     0          
O3       O      0.405700000000     0.500000000000     0.965800000000     0          
O4       O      0.500000000000     0.556100000000     0.965500000000     0          
O1       O      0.430900000000     0.459190000000     0.898540000000     0          
O2       O      0.373100000000     0.421810000000     0.941680000000     0          
C1       C      0.392800000000     0.431600000000     0.907440000000     0          
C2       C      0.357100000000     0.406200000000     0.876600000000     0          
C3       C      0.316100000000     0.373380000000     0.882390000000     0          
H1       H      0.307600000000     0.364900000000     0.907900000000     0          
C4       C      0.283600000000     0.349900000000     0.852200000000     0          
H2       H      0.252800000000     0.327300000000     0.857200000000     0          
C5       C      0.300400000000     0.362300000000     0.814700000000     0          
C6       C      0.340300000000     0.396300000000     0.809540000000     0          
H3       H      0.349000000000     0.405200000000     0.784200000000     0          
C7       C      0.369300000000     0.419000000000     0.839210000000     0          
H4       H      0.397000000000     0.442900000000     0.834100000000     0          
C8       C      0.273200000000     0.338010000000     0.781960000000     0          
C10      C      0.274300000000     0.295380000000     0.781830000000     0          
H6       H      0.291700000000     0.280900000000     0.803400000000     0          
O1       O      0.569100000000     0.540810000000     0.898540000000     0          
O2       O      0.626900000000     0.578190000000     0.941680000000     0          
C1       C      0.607200000000     0.568400000000     0.907440000000     0          
C2       C      0.642900000000     0.593800000000     0.876600000000     0          
C3       C      0.683900000000     0.626620000000     0.882390000000     0          
H1       H      0.692400000000     0.635100000000     0.907900000000     0          
C4       C      0.716400000000     0.650100000000     0.852200000000     0          
H2       H      0.747200000000     0.672700000000     0.857200000000     0          
C5       C      0.699600000000     0.637700000000     0.814700000000     0          
C6       C      0.659700000000     0.603700000000     0.809540000000     0          
H3       H      0.651000000000     0.594800000000     0.784200000000     0          
C7       C      0.630700000000     0.581000000000     0.839210000000     0          
H4       H      0.603000000000     0.557100000000     0.834100000000     0          
C8       C      0.726800000000     0.661990000000     0.781960000000     0          
C10      C      0.725700000000     0.704620000000     0.781830000000     0          
H6       H      0.708300000000     0.719100000000     0.803400000000     0          
O1       O      0.430900000000     0.540810000000     0.101460000000     0          
O2       O      0.373100000000     0.578190000000     0.058320000000     0          
C1       C      0.392800000000     0.568400000000     0.092560000000     0          
C2       C      0.357100000000     0.593800000000     0.123400000000     0          
C3       C      0.316100000000     0.626620000000     0.117610000000     0          
H1       H      0.307600000000     0.635100000000     0.092100000000     0          
C4       C      0.283600000000     0.650100000000     0.147800000000     0          
H2       H      0.252800000000     0.672700000000     0.142800000000     0          
C5       C      0.300400000000     0.637700000000     0.185300000000     0          
C6       C      0.340300000000     0.603700000000     0.190460000000     0          
H3       H      0.349000000000     0.594800000000     0.215800000000     0          
C7       C      0.369300000000     0.581000000000     0.160790000000     0          
H4       H      0.397000000000     0.557100000000     0.165900000000     0          
C8       C      0.273200000000     0.661990000000     0.218040000000     0          
C10      C      0.274300000000     0.704620000000     0.218170000000     0          
H6       H      0.291700000000     0.719100000000     0.196600000000     0          
O1       O      0.569100000000     0.459190000000     0.101460000000     0          
O2       O      0.626900000000     0.421810000000     0.058320000000     0          
C1       C      0.607200000000     0.431600000000     0.092560000000     0          
C2       C      0.642900000000     0.406200000000     0.123400000000     0          
C3       C      0.683900000000     0.373380000000     0.117610000000     0          
H1       H      0.692400000000     0.364900000000     0.092100000000     0          
C4       C      0.716400000000     0.349900000000     0.147800000000     0          
H2       H      0.747200000000     0.327300000000     0.142800000000     0          
C5       C      0.699600000000     0.362300000000     0.185300000000     0          
C6       C      0.659700000000     0.396300000000     0.190460000000     0          
H3       H      0.651000000000     0.405200000000     0.215800000000     0          
C7       C      0.630700000000     0.419000000000     0.160790000000     0          
H4       H      0.603000000000     0.442900000000     0.165900000000     0          
C8       C      0.726800000000     0.338010000000     0.218040000000     0          
C10      C      0.725700000000     0.295380000000     0.218170000000     0          
H6       H      0.708300000000     0.280900000000     0.196600000000     0          


