data_HERJEW

_audit_creation_method RASPA-1.0
_audit_creation_date 2020-11-2
_audit_author_name 'Rocio Bueno-Perez'

_cell_length_a    20.4913
_cell_length_b    34.8349
_cell_length_c    31.4259
_cell_angle_alpha 90
_cell_angle_beta  90
_cell_angle_gamma 90
_cell_volume      22432.2

_symmetry_cell_setting          orthorhombic
_symmetry_space_group_name_Hall 'P 1'
_symmetry_space_group_name_H-M  'P 1'
_symmetry_Int_Tables_number     1

_symmetry_equiv_pos_as_xyz 'x,y,z'

loop_
_atom_site_label
_atom_site_type_symbol
_atom_site_fract_x
_atom_site_fract_y
_atom_site_fract_z
_atom_site_charge
Zr3      Zr     0.586770000000     0.498060000000     0.806380000000     0          
O1       O      0.935540000000     0.895790000000     0.708270000000     0          
O2       O      0.563400000000     0.599710000000     0.707450000000     0          
O6       O      0.876300000000     0.940160000000     0.672290000000     0          
O8       O      0.616800000000     0.556730000000     0.668110000000     0          
C1       C      0.891600000000     0.905960000000     0.681810000000     0          
C2       C      0.601300000000     0.590030000000     0.677440000000     0          
C3       C      0.748700000000     0.749870000000     0.523200000000     0          
C4       C      0.858500000000     0.873960000000     0.657560000000     0          
C5       C      0.629700000000     0.622860000000     0.653080000000     0          
O11      O      0.741500000000     0.748180000000     0.656600000000     0          
C6       C      0.815900000000     0.880570000000     0.627090000000     0          
H1       H      0.804600000000     0.906300000000     0.620200000000     0          
C7       C      0.787100000000     0.850050000000     0.604640000000     0          
H2       H      0.757300000000     0.855400000000     0.582300000000     0          
C8       C      0.721500000000     0.719270000000     0.545700000000     0          
H3       H      0.705700000000     0.697800000000     0.530100000000     0          
C9       C      0.608900000000     0.659800000000     0.660800000000     0          
H4       H      0.573000000000     0.664100000000     0.679400000000     0          
C10      C      0.770200000000     0.780360000000     0.547430000000     0          
H5       H      0.786800000000     0.802300000000     0.533100000000     0          
C11      C      0.687400000000     0.685450000000     0.611930000000     0          
C12      C      0.676200000000     0.617070000000     0.622950000000     0          
H6       H      0.688100000000     0.591600000000     0.615300000000     0          
C13      C      0.801100000000     0.813220000000     0.614340000000     0          
C14      C      0.716400000000     0.718600000000     0.589600000000     0          
C15      C      0.742000000000     0.749600000000     0.612580000000     0          
C16      C      0.768800000000     0.780750000000     0.591860000000     0          
C17      C      0.639500000000     0.690640000000     0.641900000000     0          
H7       H      0.627300000000     0.716000000000     0.649800000000     0          
C18      C      0.876000000000     0.835980000000     0.669900000000     0          
H8       H      0.906000000000     0.831400000000     0.692400000000     0          
C19      C      0.847500000000     0.806180000000     0.647800000000     0          
H9       H      0.858800000000     0.780500000000     0.654800000000     0          
C20      C      0.706500000000     0.648040000000     0.603200000000     0          
H10      H      0.740800000000     0.643500000000     0.583400000000     0          
C21      C      0.690200000000     0.778600000000     0.675700000000     0          
H11      H      0.661600000000     0.787800000000     0.652900000000     0          
H12      H      0.713900000000     0.800300000000     0.688100000000     0          
H13      H      0.663900000000     0.766200000000     0.697900000000     0          
Zr1      Zr     0.500000000000     0.427970000000     0.750000000000     0          
Zr2      Zr     0.500000000000     0.567750000000     0.750000000000     0          
O3       O      0.500000000000     0.529150000000     0.801190000000     0          
O9       O      0.500000000000     0.461290000000     0.811380000000     0          
O4       O      0.578600000000     0.466620000000     0.750000000000     0          
O5       O      0.596100000000     0.534430000000     0.750000000000     0          
Zr3      Zr     0.413230000000     0.501940000000     0.306380000000     0          
O1       O      0.064460000000     0.104210000000     0.208270000000     0          
O2       O      0.436600000000     0.400290000000     0.207450000000     0          
O6       O      0.123700000000     0.059840000000     0.172290000000     0          
O8       O      0.383200000000     0.443270000000     0.168110000000     0          
C1       C      0.108400000000     0.094040000000     0.181810000000     0          
C2       C      0.398700000000     0.409970000000     0.177440000000     0          
C3       C      0.251300000000     0.250130000000     0.023200000000     0          
C4       C      0.141500000000     0.126040000000     0.157560000000     0          
C5       C      0.370300000000     0.377140000000     0.153080000000     0          
O11      O      0.258500000000     0.251820000000     0.156600000000     0          
C6       C      0.184100000000     0.119430000000     0.127090000000     0          
H1       H      0.195400000000     0.093700000000     0.120200000000     0          
C7       C      0.212900000000     0.149950000000     0.104640000000     0          
H2       H      0.242700000000     0.144600000000     0.082300000000     0          
C8       C      0.278500000000     0.280730000000     0.045700000000     0          
H3       H      0.294300000000     0.302200000000     0.030100000000     0          
C9       C      0.391100000000     0.340200000000     0.160800000000     0          
H4       H      0.427000000000     0.335900000000     0.179400000000     0          
C10      C      0.229800000000     0.219640000000     0.047430000000     0          
H5       H      0.213200000000     0.197700000000     0.033100000000     0          
C11      C      0.312600000000     0.314550000000     0.111930000000     0          
C12      C      0.323800000000     0.382930000000     0.122950000000     0          
H6       H      0.311900000000     0.408400000000     0.115300000000     0          
C13      C      0.198900000000     0.186780000000     0.114340000000     0          
C14      C      0.283600000000     0.281400000000     0.089600000000     0          
C15      C      0.258000000000     0.250400000000     0.112580000000     0          
C16      C      0.231200000000     0.219250000000     0.091860000000     0          
C17      C      0.360500000000     0.309360000000     0.141900000000     0          
H7       H      0.372700000000     0.284000000000     0.149800000000     0          
C18      C      0.124000000000     0.164020000000     0.169900000000     0          
H8       H      0.094000000000     0.168600000000     0.192400000000     0          
C19      C      0.152500000000     0.193820000000     0.147800000000     0          
H9       H      0.141200000000     0.219500000000     0.154800000000     0          
C20      C      0.293500000000     0.351960000000     0.103200000000     0          
H10      H      0.259200000000     0.356500000000     0.083400000000     0          
C21      C      0.309800000000     0.221400000000     0.175700000000     0          
H11      H      0.338400000000     0.212200000000     0.152900000000     0          
H12      H      0.286100000000     0.199700000000     0.188100000000     0          
H13      H      0.336100000000     0.233800000000     0.197900000000     0          
Zr1      Zr     0.500000000000     0.572030000000     0.250000000000     0          
Zr2      Zr     0.500000000000     0.432250000000     0.250000000000     0          
O3       O      0.500000000000     0.470850000000     0.301190000000     0          
O9       O      0.500000000000     0.538710000000     0.311380000000     0          
O4       O      0.421400000000     0.533380000000     0.250000000000     0          
O5       O      0.403900000000     0.465570000000     0.250000000000     0          
Zr3      Zr     0.586770000000     0.501940000000     0.193620000000     0          
O1       O      0.935540000000     0.104210000000     0.291730000000     0          
O2       O      0.563400000000     0.400290000000     0.292550000000     0          
O6       O      0.876300000000     0.059840000000     0.327710000000     0          
O8       O      0.616800000000     0.443270000000     0.331890000000     0          
C1       C      0.891600000000     0.094040000000     0.318190000000     0          
C2       C      0.601300000000     0.409970000000     0.322560000000     0          
C3       C      0.748700000000     0.250130000000     0.476800000000     0          
C4       C      0.858500000000     0.126040000000     0.342440000000     0          
C5       C      0.629700000000     0.377140000000     0.346920000000     0          
O11      O      0.741500000000     0.251820000000     0.343400000000     0          
C6       C      0.815900000000     0.119430000000     0.372910000000     0          
H1       H      0.804600000000     0.093700000000     0.379800000000     0          
C7       C      0.787100000000     0.149950000000     0.395360000000     0          
H2       H      0.757300000000     0.144600000000     0.417700000000     0          
C8       C      0.721500000000     0.280730000000     0.454300000000     0          
H3       H      0.705700000000     0.302200000000     0.469900000000     0          
C9       C      0.608900000000     0.340200000000     0.339200000000     0          
H4       H      0.573000000000     0.335900000000     0.320600000000     0          
C10      C      0.770200000000     0.219640000000     0.452570000000     0          
H5       H      0.786800000000     0.197700000000     0.466900000000     0          
C11      C      0.687400000000     0.314550000000     0.388070000000     0          
C12      C      0.676200000000     0.382930000000     0.377050000000     0          
H6       H      0.688100000000     0.408400000000     0.384700000000     0          
C13      C      0.801100000000     0.186780000000     0.385660000000     0          
C14      C      0.716400000000     0.281400000000     0.410400000000     0          
C15      C      0.742000000000     0.250400000000     0.387420000000     0          
C16      C      0.768800000000     0.219250000000     0.408140000000     0          
C17      C      0.639500000000     0.309360000000     0.358100000000     0          
H7       H      0.627300000000     0.284000000000     0.350200000000     0          
C18      C      0.876000000000     0.164020000000     0.330100000000     0          
H8       H      0.906000000000     0.168600000000     0.307600000000     0          
C19      C      0.847500000000     0.193820000000     0.352200000000     0          
H9       H      0.858800000000     0.219500000000     0.345200000000     0          
C20      C      0.706500000000     0.351960000000     0.396800000000     0          
H10      H      0.740800000000     0.356500000000     0.416600000000     0          
C21      C      0.690200000000     0.221400000000     0.324300000000     0          
H11      H      0.661600000000     0.212200000000     0.347100000000     0          
H12      H      0.713900000000     0.199700000000     0.311900000000     0          
H13      H      0.663900000000     0.233800000000     0.302100000000     0          
O3       O      0.500000000000     0.470850000000     0.198810000000     0          
O9       O      0.500000000000     0.538710000000     0.188620000000     0          
O4       O      0.578600000000     0.533380000000     0.250000000000     0          
O5       O      0.596100000000     0.465570000000     0.250000000000     0          
Zr3      Zr     0.413230000000     0.498060000000     0.693620000000     0          
O1       O      0.064460000000     0.895790000000     0.791730000000     0          
O2       O      0.436600000000     0.599710000000     0.792550000000     0          
O6       O      0.123700000000     0.940160000000     0.827710000000     0          
O8       O      0.383200000000     0.556730000000     0.831890000000     0          
C1       C      0.108400000000     0.905960000000     0.818190000000     0          
C2       C      0.398700000000     0.590030000000     0.822560000000     0          
C3       C      0.251300000000     0.749870000000     0.976800000000     0          
C4       C      0.141500000000     0.873960000000     0.842440000000     0          
C5       C      0.370300000000     0.622860000000     0.846920000000     0          
O11      O      0.258500000000     0.748180000000     0.843400000000     0          
C6       C      0.184100000000     0.880570000000     0.872910000000     0          
H1       H      0.195400000000     0.906300000000     0.879800000000     0          
C7       C      0.212900000000     0.850050000000     0.895360000000     0          
H2       H      0.242700000000     0.855400000000     0.917700000000     0          
C8       C      0.278500000000     0.719270000000     0.954300000000     0          
H3       H      0.294300000000     0.697800000000     0.969900000000     0          
C9       C      0.391100000000     0.659800000000     0.839200000000     0          
H4       H      0.427000000000     0.664100000000     0.820600000000     0          
C10      C      0.229800000000     0.780360000000     0.952570000000     0          
H5       H      0.213200000000     0.802300000000     0.966900000000     0          
C11      C      0.312600000000     0.685450000000     0.888070000000     0          
C12      C      0.323800000000     0.617070000000     0.877050000000     0          
H6       H      0.311900000000     0.591600000000     0.884700000000     0          
C13      C      0.198900000000     0.813220000000     0.885660000000     0          
C14      C      0.283600000000     0.718600000000     0.910400000000     0          
C15      C      0.258000000000     0.749600000000     0.887420000000     0          
C16      C      0.231200000000     0.780750000000     0.908140000000     0          
C17      C      0.360500000000     0.690640000000     0.858100000000     0          
H7       H      0.372700000000     0.716000000000     0.850200000000     0          
C18      C      0.124000000000     0.835980000000     0.830100000000     0          
H8       H      0.094000000000     0.831400000000     0.807600000000     0          
C19      C      0.152500000000     0.806180000000     0.852200000000     0          
H9       H      0.141200000000     0.780500000000     0.845200000000     0          
C20      C      0.293500000000     0.648040000000     0.896800000000     0          
H10      H      0.259200000000     0.643500000000     0.916600000000     0          
C21      C      0.309800000000     0.778600000000     0.824300000000     0          
H11      H      0.338400000000     0.787800000000     0.847100000000     0          
H12      H      0.286100000000     0.800300000000     0.811900000000     0          
H13      H      0.336100000000     0.766200000000     0.802100000000     0          
O3       O      0.500000000000     0.529150000000     0.698810000000     0          
O9       O      0.500000000000     0.461290000000     0.688620000000     0          
O4       O      0.421400000000     0.466620000000     0.750000000000     0          
O5       O      0.403900000000     0.534430000000     0.750000000000     0          
Zr3      Zr     0.413230000000     0.501940000000     0.193620000000     0          
O1       O      0.064460000000     0.104210000000     0.291730000000     0          
O2       O      0.436600000000     0.400290000000     0.292550000000     0          
O6       O      0.123700000000     0.059840000000     0.327710000000     0          
O8       O      0.383200000000     0.443270000000     0.331890000000     0          
C1       C      0.108400000000     0.094040000000     0.318190000000     0          
C2       C      0.398700000000     0.409970000000     0.322560000000     0          
C3       C      0.251300000000     0.250130000000     0.476800000000     0          
C4       C      0.141500000000     0.126040000000     0.342440000000     0          
C5       C      0.370300000000     0.377140000000     0.346920000000     0          
O11      O      0.258500000000     0.251820000000     0.343400000000     0          
C6       C      0.184100000000     0.119430000000     0.372910000000     0          
H1       H      0.195400000000     0.093700000000     0.379800000000     0          
C7       C      0.212900000000     0.149950000000     0.395360000000     0          
H2       H      0.242700000000     0.144600000000     0.417700000000     0          
C8       C      0.278500000000     0.280730000000     0.454300000000     0          
H3       H      0.294300000000     0.302200000000     0.469900000000     0          
C9       C      0.391100000000     0.340200000000     0.339200000000     0          
H4       H      0.427000000000     0.335900000000     0.320600000000     0          
C10      C      0.229800000000     0.219640000000     0.452570000000     0          
H5       H      0.213200000000     0.197700000000     0.466900000000     0          
C11      C      0.312600000000     0.314550000000     0.388070000000     0          
C12      C      0.323800000000     0.382930000000     0.377050000000     0          
H6       H      0.311900000000     0.408400000000     0.384700000000     0          
C13      C      0.198900000000     0.186780000000     0.385660000000     0          
C14      C      0.283600000000     0.281400000000     0.410400000000     0          
C15      C      0.258000000000     0.250400000000     0.387420000000     0          
C16      C      0.231200000000     0.219250000000     0.408140000000     0          
C17      C      0.360500000000     0.309360000000     0.358100000000     0          
H7       H      0.372700000000     0.284000000000     0.350200000000     0          
C18      C      0.124000000000     0.164020000000     0.330100000000     0          
H8       H      0.094000000000     0.168600000000     0.307600000000     0          
C19      C      0.152500000000     0.193820000000     0.352200000000     0          
H9       H      0.141200000000     0.219500000000     0.345200000000     0          
C20      C      0.293500000000     0.351960000000     0.396800000000     0          
H10      H      0.259200000000     0.356500000000     0.416600000000     0          
C21      C      0.309800000000     0.221400000000     0.324300000000     0          
H11      H      0.338400000000     0.212200000000     0.347100000000     0          
H12      H      0.286100000000     0.199700000000     0.311900000000     0          
H13      H      0.336100000000     0.233800000000     0.302100000000     0          
Zr3      Zr     0.586770000000     0.498060000000     0.693620000000     0          
O1       O      0.935540000000     0.895790000000     0.791730000000     0          
O2       O      0.563400000000     0.599710000000     0.792550000000     0          
O6       O      0.876300000000     0.940160000000     0.827710000000     0          
O8       O      0.616800000000     0.556730000000     0.831890000000     0          
C1       C      0.891600000000     0.905960000000     0.818190000000     0          
C2       C      0.601300000000     0.590030000000     0.822560000000     0          
C3       C      0.748700000000     0.749870000000     0.976800000000     0          
C4       C      0.858500000000     0.873960000000     0.842440000000     0          
C5       C      0.629700000000     0.622860000000     0.846920000000     0          
O11      O      0.741500000000     0.748180000000     0.843400000000     0          
C6       C      0.815900000000     0.880570000000     0.872910000000     0          
H1       H      0.804600000000     0.906300000000     0.879800000000     0          
C7       C      0.787100000000     0.850050000000     0.895360000000     0          
H2       H      0.757300000000     0.855400000000     0.917700000000     0          
C8       C      0.721500000000     0.719270000000     0.954300000000     0          
H3       H      0.705700000000     0.697800000000     0.969900000000     0          
C9       C      0.608900000000     0.659800000000     0.839200000000     0          
H4       H      0.573000000000     0.664100000000     0.820600000000     0          
C10      C      0.770200000000     0.780360000000     0.952570000000     0          
H5       H      0.786800000000     0.802300000000     0.966900000000     0          
C11      C      0.687400000000     0.685450000000     0.888070000000     0          
C12      C      0.676200000000     0.617070000000     0.877050000000     0          
H6       H      0.688100000000     0.591600000000     0.884700000000     0          
C13      C      0.801100000000     0.813220000000     0.885660000000     0          
C14      C      0.716400000000     0.718600000000     0.910400000000     0          
C15      C      0.742000000000     0.749600000000     0.887420000000     0          
C16      C      0.768800000000     0.780750000000     0.908140000000     0          
C17      C      0.639500000000     0.690640000000     0.858100000000     0          
H7       H      0.627300000000     0.716000000000     0.850200000000     0          
C18      C      0.876000000000     0.835980000000     0.830100000000     0          
H8       H      0.906000000000     0.831400000000     0.807600000000     0          
C19      C      0.847500000000     0.806180000000     0.852200000000     0          
H9       H      0.858800000000     0.780500000000     0.845200000000     0          
C20      C      0.706500000000     0.648040000000     0.896800000000     0          
H10      H      0.740800000000     0.643500000000     0.916600000000     0          
C21      C      0.690200000000     0.778600000000     0.824300000000     0          
H11      H      0.661600000000     0.787800000000     0.847100000000     0          
H12      H      0.713900000000     0.800300000000     0.811900000000     0          
H13      H      0.663900000000     0.766200000000     0.802100000000     0          
Zr3      Zr     0.413230000000     0.498060000000     0.806380000000     0          
O1       O      0.064460000000     0.895790000000     0.708270000000     0          
O2       O      0.436600000000     0.599710000000     0.707450000000     0          
O6       O      0.123700000000     0.940160000000     0.672290000000     0          
O8       O      0.383200000000     0.556730000000     0.668110000000     0          
C1       C      0.108400000000     0.905960000000     0.681810000000     0          
C2       C      0.398700000000     0.590030000000     0.677440000000     0          
C3       C      0.251300000000     0.749870000000     0.523200000000     0          
C4       C      0.141500000000     0.873960000000     0.657560000000     0          
C5       C      0.370300000000     0.622860000000     0.653080000000     0          
O11      O      0.258500000000     0.748180000000     0.656600000000     0          
C6       C      0.184100000000     0.880570000000     0.627090000000     0          
H1       H      0.195400000000     0.906300000000     0.620200000000     0          
C7       C      0.212900000000     0.850050000000     0.604640000000     0          
H2       H      0.242700000000     0.855400000000     0.582300000000     0          
C8       C      0.278500000000     0.719270000000     0.545700000000     0          
H3       H      0.294300000000     0.697800000000     0.530100000000     0          
C9       C      0.391100000000     0.659800000000     0.660800000000     0          
H4       H      0.427000000000     0.664100000000     0.679400000000     0          
C10      C      0.229800000000     0.780360000000     0.547430000000     0          
H5       H      0.213200000000     0.802300000000     0.533100000000     0          
C11      C      0.312600000000     0.685450000000     0.611930000000     0          
C12      C      0.323800000000     0.617070000000     0.622950000000     0          
H6       H      0.311900000000     0.591600000000     0.615300000000     0          
C13      C      0.198900000000     0.813220000000     0.614340000000     0          
C14      C      0.283600000000     0.718600000000     0.589600000000     0          
C15      C      0.258000000000     0.749600000000     0.612580000000     0          
C16      C      0.231200000000     0.780750000000     0.591860000000     0          
C17      C      0.360500000000     0.690640000000     0.641900000000     0          
H7       H      0.372700000000     0.716000000000     0.649800000000     0          
C18      C      0.124000000000     0.835980000000     0.669900000000     0          
H8       H      0.094000000000     0.831400000000     0.692400000000     0          
C19      C      0.152500000000     0.806180000000     0.647800000000     0          
H9       H      0.141200000000     0.780500000000     0.654800000000     0          
C20      C      0.293500000000     0.648040000000     0.603200000000     0          
H10      H      0.259200000000     0.643500000000     0.583400000000     0          
C21      C      0.309800000000     0.778600000000     0.675700000000     0          
H11      H      0.338400000000     0.787800000000     0.652900000000     0          
H12      H      0.286100000000     0.800300000000     0.688100000000     0          
H13      H      0.336100000000     0.766200000000     0.697900000000     0          
Zr3      Zr     0.586770000000     0.501940000000     0.306380000000     0          
O1       O      0.935540000000     0.104210000000     0.208270000000     0          
O2       O      0.563400000000     0.400290000000     0.207450000000     0          
O6       O      0.876300000000     0.059840000000     0.172290000000     0          
O8       O      0.616800000000     0.443270000000     0.168110000000     0          
C1       C      0.891600000000     0.094040000000     0.181810000000     0          
C2       C      0.601300000000     0.409970000000     0.177440000000     0          
C3       C      0.748700000000     0.250130000000     0.023200000000     0          
C4       C      0.858500000000     0.126040000000     0.157560000000     0          
C5       C      0.629700000000     0.377140000000     0.153080000000     0          
O11      O      0.741500000000     0.251820000000     0.156600000000     0          
C6       C      0.815900000000     0.119430000000     0.127090000000     0          
H1       H      0.804600000000     0.093700000000     0.120200000000     0          
C7       C      0.787100000000     0.149950000000     0.104640000000     0          
H2       H      0.757300000000     0.144600000000     0.082300000000     0          
C8       C      0.721500000000     0.280730000000     0.045700000000     0          
H3       H      0.705700000000     0.302200000000     0.030100000000     0          
C9       C      0.608900000000     0.340200000000     0.160800000000     0          
H4       H      0.573000000000     0.335900000000     0.179400000000     0          
C10      C      0.770200000000     0.219640000000     0.047430000000     0          
H5       H      0.786800000000     0.197700000000     0.033100000000     0          
C11      C      0.687400000000     0.314550000000     0.111930000000     0          
C12      C      0.676200000000     0.382930000000     0.122950000000     0          
H6       H      0.688100000000     0.408400000000     0.115300000000     0          
C13      C      0.801100000000     0.186780000000     0.114340000000     0          
C14      C      0.716400000000     0.281400000000     0.089600000000     0          
C15      C      0.742000000000     0.250400000000     0.112580000000     0          
C16      C      0.768800000000     0.219250000000     0.091860000000     0          
C17      C      0.639500000000     0.309360000000     0.141900000000     0          
H7       H      0.627300000000     0.284000000000     0.149800000000     0          
C18      C      0.876000000000     0.164020000000     0.169900000000     0          
H8       H      0.906000000000     0.168600000000     0.192400000000     0          
C19      C      0.847500000000     0.193820000000     0.147800000000     0          
H9       H      0.858800000000     0.219500000000     0.154800000000     0          
C20      C      0.706500000000     0.351960000000     0.103200000000     0          
H10      H      0.740800000000     0.356500000000     0.083400000000     0          
C21      C      0.690200000000     0.221400000000     0.175700000000     0          
H11      H      0.661600000000     0.212200000000     0.152900000000     0          
H12      H      0.713900000000     0.199700000000     0.188100000000     0          
H13      H      0.663900000000     0.233800000000     0.197900000000     0          
Zr3      Zr     0.086770000000     0.998060000000     0.806380000000     0          
O1       O      0.435540000000     0.395790000000     0.708270000000     0          
O2       O      0.063400000000     0.099710000000     0.707450000000     0          
O6       O      0.376300000000     0.440160000000     0.672290000000     0          
O8       O      0.116800000000     0.056730000000     0.668110000000     0          
C1       C      0.391600000000     0.405960000000     0.681810000000     0          
C2       C      0.101300000000     0.090030000000     0.677440000000     0          
C3       C      0.248700000000     0.249870000000     0.523200000000     0          
C4       C      0.358500000000     0.373960000000     0.657560000000     0          
C5       C      0.129700000000     0.122860000000     0.653080000000     0          
O11      O      0.241500000000     0.248180000000     0.656600000000     0          
C6       C      0.315900000000     0.380570000000     0.627090000000     0          
H1       H      0.304600000000     0.406300000000     0.620200000000     0          
C7       C      0.287100000000     0.350050000000     0.604640000000     0          
H2       H      0.257300000000     0.355400000000     0.582300000000     0          
C8       C      0.221500000000     0.219270000000     0.545700000000     0          
H3       H      0.205700000000     0.197800000000     0.530100000000     0          
C9       C      0.108900000000     0.159800000000     0.660800000000     0          
H4       H      0.073000000000     0.164100000000     0.679400000000     0          
C10      C      0.270200000000     0.280360000000     0.547430000000     0          
H5       H      0.286800000000     0.302300000000     0.533100000000     0          
C11      C      0.187400000000     0.185450000000     0.611930000000     0          
C12      C      0.176200000000     0.117070000000     0.622950000000     0          
H6       H      0.188100000000     0.091600000000     0.615300000000     0          
C13      C      0.301100000000     0.313220000000     0.614340000000     0          
C14      C      0.216400000000     0.218600000000     0.589600000000     0          
C15      C      0.242000000000     0.249600000000     0.612580000000     0          
C16      C      0.268800000000     0.280750000000     0.591860000000     0          
C17      C      0.139500000000     0.190640000000     0.641900000000     0          
H7       H      0.127300000000     0.216000000000     0.649800000000     0          
C18      C      0.376000000000     0.335980000000     0.669900000000     0          
H8       H      0.406000000000     0.331400000000     0.692400000000     0          
C19      C      0.347500000000     0.306180000000     0.647800000000     0          
H9       H      0.358800000000     0.280500000000     0.654800000000     0          
C20      C      0.206500000000     0.148040000000     0.603200000000     0          
H10      H      0.240800000000     0.143500000000     0.583400000000     0          
C21      C      0.190200000000     0.278600000000     0.675700000000     0          
H11      H      0.161600000000     0.287800000000     0.652900000000     0          
H12      H      0.213900000000     0.300300000000     0.688100000000     0          
H13      H      0.163900000000     0.266200000000     0.697900000000     0          
Zr1      Zr     0.000000000000     0.927970000000     0.750000000000     0          
Zr2      Zr     0.000000000000     0.067750000000     0.750000000000     0          
O3       O      0.000000000000     0.029150000000     0.801190000000     0          
O9       O      0.000000000000     0.961290000000     0.811380000000     0          
O4       O      0.078600000000     0.966620000000     0.750000000000     0          
O5       O      0.096100000000     0.034430000000     0.750000000000     0          
Zr3      Zr     0.913230000000     0.001940000000     0.306380000000     0          
O1       O      0.564460000000     0.604210000000     0.208270000000     0          
O2       O      0.936600000000     0.900290000000     0.207450000000     0          
O6       O      0.623700000000     0.559840000000     0.172290000000     0          
O8       O      0.883200000000     0.943270000000     0.168110000000     0          
C1       C      0.608400000000     0.594040000000     0.181810000000     0          
C2       C      0.898700000000     0.909970000000     0.177440000000     0          
C3       C      0.751300000000     0.750130000000     0.023200000000     0          
C4       C      0.641500000000     0.626040000000     0.157560000000     0          
C5       C      0.870300000000     0.877140000000     0.153080000000     0          
O11      O      0.758500000000     0.751820000000     0.156600000000     0          
C6       C      0.684100000000     0.619430000000     0.127090000000     0          
H1       H      0.695400000000     0.593700000000     0.120200000000     0          
C7       C      0.712900000000     0.649950000000     0.104640000000     0          
H2       H      0.742700000000     0.644600000000     0.082300000000     0          
C8       C      0.778500000000     0.780730000000     0.045700000000     0          
H3       H      0.794300000000     0.802200000000     0.030100000000     0          
C9       C      0.891100000000     0.840200000000     0.160800000000     0          
H4       H      0.927000000000     0.835900000000     0.179400000000     0          
C10      C      0.729800000000     0.719640000000     0.047430000000     0          
H5       H      0.713200000000     0.697700000000     0.033100000000     0          
C11      C      0.812600000000     0.814550000000     0.111930000000     0          
C12      C      0.823800000000     0.882930000000     0.122950000000     0          
H6       H      0.811900000000     0.908400000000     0.115300000000     0          
C13      C      0.698900000000     0.686780000000     0.114340000000     0          
C14      C      0.783600000000     0.781400000000     0.089600000000     0          
C15      C      0.758000000000     0.750400000000     0.112580000000     0          
C16      C      0.731200000000     0.719250000000     0.091860000000     0          
C17      C      0.860500000000     0.809360000000     0.141900000000     0          
H7       H      0.872700000000     0.784000000000     0.149800000000     0          
C18      C      0.624000000000     0.664020000000     0.169900000000     0          
H8       H      0.594000000000     0.668600000000     0.192400000000     0          
C19      C      0.652500000000     0.693820000000     0.147800000000     0          
H9       H      0.641200000000     0.719500000000     0.154800000000     0          
C20      C      0.793500000000     0.851960000000     0.103200000000     0          
H10      H      0.759200000000     0.856500000000     0.083400000000     0          
C21      C      0.809800000000     0.721400000000     0.175700000000     0          
H11      H      0.838400000000     0.712200000000     0.152900000000     0          
H12      H      0.786100000000     0.699700000000     0.188100000000     0          
H13      H      0.836100000000     0.733800000000     0.197900000000     0          
Zr1      Zr     0.000000000000     0.072030000000     0.250000000000     0          
Zr2      Zr     0.000000000000     0.932250000000     0.250000000000     0          
O3       O      0.000000000000     0.970850000000     0.301190000000     0          
O9       O      0.000000000000     0.038710000000     0.311380000000     0          
O4       O      0.921400000000     0.033380000000     0.250000000000     0          
O5       O      0.903900000000     0.965570000000     0.250000000000     0          
Zr3      Zr     0.086770000000     0.001940000000     0.193620000000     0          
O1       O      0.435540000000     0.604210000000     0.291730000000     0          
O2       O      0.063400000000     0.900290000000     0.292550000000     0          
O6       O      0.376300000000     0.559840000000     0.327710000000     0          
O8       O      0.116800000000     0.943270000000     0.331890000000     0          
C1       C      0.391600000000     0.594040000000     0.318190000000     0          
C2       C      0.101300000000     0.909970000000     0.322560000000     0          
C3       C      0.248700000000     0.750130000000     0.476800000000     0          
C4       C      0.358500000000     0.626040000000     0.342440000000     0          
C5       C      0.129700000000     0.877140000000     0.346920000000     0          
O11      O      0.241500000000     0.751820000000     0.343400000000     0          
C6       C      0.315900000000     0.619430000000     0.372910000000     0          
H1       H      0.304600000000     0.593700000000     0.379800000000     0          
C7       C      0.287100000000     0.649950000000     0.395360000000     0          
H2       H      0.257300000000     0.644600000000     0.417700000000     0          
C8       C      0.221500000000     0.780730000000     0.454300000000     0          
H3       H      0.205700000000     0.802200000000     0.469900000000     0          
C9       C      0.108900000000     0.840200000000     0.339200000000     0          
H4       H      0.073000000000     0.835900000000     0.320600000000     0          
C10      C      0.270200000000     0.719640000000     0.452570000000     0          
H5       H      0.286800000000     0.697700000000     0.466900000000     0          
C11      C      0.187400000000     0.814550000000     0.388070000000     0          
C12      C      0.176200000000     0.882930000000     0.377050000000     0          
H6       H      0.188100000000     0.908400000000     0.384700000000     0          
C13      C      0.301100000000     0.686780000000     0.385660000000     0          
C14      C      0.216400000000     0.781400000000     0.410400000000     0          
C15      C      0.242000000000     0.750400000000     0.387420000000     0          
C16      C      0.268800000000     0.719250000000     0.408140000000     0          
C17      C      0.139500000000     0.809360000000     0.358100000000     0          
H7       H      0.127300000000     0.784000000000     0.350200000000     0          
C18      C      0.376000000000     0.664020000000     0.330100000000     0          
H8       H      0.406000000000     0.668600000000     0.307600000000     0          
C19      C      0.347500000000     0.693820000000     0.352200000000     0          
H9       H      0.358800000000     0.719500000000     0.345200000000     0          
C20      C      0.206500000000     0.851960000000     0.396800000000     0          
H10      H      0.240800000000     0.856500000000     0.416600000000     0          
C21      C      0.190200000000     0.721400000000     0.324300000000     0          
H11      H      0.161600000000     0.712200000000     0.347100000000     0          
H12      H      0.213900000000     0.699700000000     0.311900000000     0          
H13      H      0.163900000000     0.733800000000     0.302100000000     0          
O3       O      0.000000000000     0.970850000000     0.198810000000     0          
O9       O      0.000000000000     0.038710000000     0.188620000000     0          
O4       O      0.078600000000     0.033380000000     0.250000000000     0          
O5       O      0.096100000000     0.965570000000     0.250000000000     0          
Zr3      Zr     0.913230000000     0.998060000000     0.693620000000     0          
O1       O      0.564460000000     0.395790000000     0.791730000000     0          
O2       O      0.936600000000     0.099710000000     0.792550000000     0          
O6       O      0.623700000000     0.440160000000     0.827710000000     0          
O8       O      0.883200000000     0.056730000000     0.831890000000     0          
C1       C      0.608400000000     0.405960000000     0.818190000000     0          
C2       C      0.898700000000     0.090030000000     0.822560000000     0          
C3       C      0.751300000000     0.249870000000     0.976800000000     0          
C4       C      0.641500000000     0.373960000000     0.842440000000     0          
C5       C      0.870300000000     0.122860000000     0.846920000000     0          
O11      O      0.758500000000     0.248180000000     0.843400000000     0          
C6       C      0.684100000000     0.380570000000     0.872910000000     0          
H1       H      0.695400000000     0.406300000000     0.879800000000     0          
C7       C      0.712900000000     0.350050000000     0.895360000000     0          
H2       H      0.742700000000     0.355400000000     0.917700000000     0          
C8       C      0.778500000000     0.219270000000     0.954300000000     0          
H3       H      0.794300000000     0.197800000000     0.969900000000     0          
C9       C      0.891100000000     0.159800000000     0.839200000000     0          
H4       H      0.927000000000     0.164100000000     0.820600000000     0          
C10      C      0.729800000000     0.280360000000     0.952570000000     0          
H5       H      0.713200000000     0.302300000000     0.966900000000     0          
C11      C      0.812600000000     0.185450000000     0.888070000000     0          
C12      C      0.823800000000     0.117070000000     0.877050000000     0          
H6       H      0.811900000000     0.091600000000     0.884700000000     0          
C13      C      0.698900000000     0.313220000000     0.885660000000     0          
C14      C      0.783600000000     0.218600000000     0.910400000000     0          
C15      C      0.758000000000     0.249600000000     0.887420000000     0          
C16      C      0.731200000000     0.280750000000     0.908140000000     0          
C17      C      0.860500000000     0.190640000000     0.858100000000     0          
H7       H      0.872700000000     0.216000000000     0.850200000000     0          
C18      C      0.624000000000     0.335980000000     0.830100000000     0          
H8       H      0.594000000000     0.331400000000     0.807600000000     0          
C19      C      0.652500000000     0.306180000000     0.852200000000     0          
H9       H      0.641200000000     0.280500000000     0.845200000000     0          
C20      C      0.793500000000     0.148040000000     0.896800000000     0          
H10      H      0.759200000000     0.143500000000     0.916600000000     0          
C21      C      0.809800000000     0.278600000000     0.824300000000     0          
H11      H      0.838400000000     0.287800000000     0.847100000000     0          
H12      H      0.786100000000     0.300300000000     0.811900000000     0          
H13      H      0.836100000000     0.266200000000     0.802100000000     0          
O3       O      0.000000000000     0.029150000000     0.698810000000     0          
O9       O      0.000000000000     0.961290000000     0.688620000000     0          
O4       O      0.921400000000     0.966620000000     0.750000000000     0          
O5       O      0.903900000000     0.034430000000     0.750000000000     0          
Zr3      Zr     0.913230000000     0.001940000000     0.193620000000     0          
O1       O      0.564460000000     0.604210000000     0.291730000000     0          
O2       O      0.936600000000     0.900290000000     0.292550000000     0          
O6       O      0.623700000000     0.559840000000     0.327710000000     0          
O8       O      0.883200000000     0.943270000000     0.331890000000     0          
C1       C      0.608400000000     0.594040000000     0.318190000000     0          
C2       C      0.898700000000     0.909970000000     0.322560000000     0          
C3       C      0.751300000000     0.750130000000     0.476800000000     0          
C4       C      0.641500000000     0.626040000000     0.342440000000     0          
C5       C      0.870300000000     0.877140000000     0.346920000000     0          
O11      O      0.758500000000     0.751820000000     0.343400000000     0          
C6       C      0.684100000000     0.619430000000     0.372910000000     0          
H1       H      0.695400000000     0.593700000000     0.379800000000     0          
C7       C      0.712900000000     0.649950000000     0.395360000000     0          
H2       H      0.742700000000     0.644600000000     0.417700000000     0          
C8       C      0.778500000000     0.780730000000     0.454300000000     0          
H3       H      0.794300000000     0.802200000000     0.469900000000     0          
C9       C      0.891100000000     0.840200000000     0.339200000000     0          
H4       H      0.927000000000     0.835900000000     0.320600000000     0          
C10      C      0.729800000000     0.719640000000     0.452570000000     0          
H5       H      0.713200000000     0.697700000000     0.466900000000     0          
C11      C      0.812600000000     0.814550000000     0.388070000000     0          
C12      C      0.823800000000     0.882930000000     0.377050000000     0          
H6       H      0.811900000000     0.908400000000     0.384700000000     0          
C13      C      0.698900000000     0.686780000000     0.385660000000     0          
C14      C      0.783600000000     0.781400000000     0.410400000000     0          
C15      C      0.758000000000     0.750400000000     0.387420000000     0          
C16      C      0.731200000000     0.719250000000     0.408140000000     0          
C17      C      0.860500000000     0.809360000000     0.358100000000     0          
H7       H      0.872700000000     0.784000000000     0.350200000000     0          
C18      C      0.624000000000     0.664020000000     0.330100000000     0          
H8       H      0.594000000000     0.668600000000     0.307600000000     0          
C19      C      0.652500000000     0.693820000000     0.352200000000     0          
H9       H      0.641200000000     0.719500000000     0.345200000000     0          
C20      C      0.793500000000     0.851960000000     0.396800000000     0          
H10      H      0.759200000000     0.856500000000     0.416600000000     0          
C21      C      0.809800000000     0.721400000000     0.324300000000     0          
H11      H      0.838400000000     0.712200000000     0.347100000000     0          
H12      H      0.786100000000     0.699700000000     0.311900000000     0          
H13      H      0.836100000000     0.733800000000     0.302100000000     0          
Zr3      Zr     0.086770000000     0.998060000000     0.693620000000     0          
O1       O      0.435540000000     0.395790000000     0.791730000000     0          
O2       O      0.063400000000     0.099710000000     0.792550000000     0          
O6       O      0.376300000000     0.440160000000     0.827710000000     0          
O8       O      0.116800000000     0.056730000000     0.831890000000     0          
C1       C      0.391600000000     0.405960000000     0.818190000000     0          
C2       C      0.101300000000     0.090030000000     0.822560000000     0          
C3       C      0.248700000000     0.249870000000     0.976800000000     0          
C4       C      0.358500000000     0.373960000000     0.842440000000     0          
C5       C      0.129700000000     0.122860000000     0.846920000000     0          
O11      O      0.241500000000     0.248180000000     0.843400000000     0          
C6       C      0.315900000000     0.380570000000     0.872910000000     0          
H1       H      0.304600000000     0.406300000000     0.879800000000     0          
C7       C      0.287100000000     0.350050000000     0.895360000000     0          
H2       H      0.257300000000     0.355400000000     0.917700000000     0          
C8       C      0.221500000000     0.219270000000     0.954300000000     0          
H3       H      0.205700000000     0.197800000000     0.969900000000     0          
C9       C      0.108900000000     0.159800000000     0.839200000000     0          
H4       H      0.073000000000     0.164100000000     0.820600000000     0          
C10      C      0.270200000000     0.280360000000     0.952570000000     0          
H5       H      0.286800000000     0.302300000000     0.966900000000     0          
C11      C      0.187400000000     0.185450000000     0.888070000000     0          
C12      C      0.176200000000     0.117070000000     0.877050000000     0          
H6       H      0.188100000000     0.091600000000     0.884700000000     0          
C13      C      0.301100000000     0.313220000000     0.885660000000     0          
C14      C      0.216400000000     0.218600000000     0.910400000000     0          
C15      C      0.242000000000     0.249600000000     0.887420000000     0          
C16      C      0.268800000000     0.280750000000     0.908140000000     0          
C17      C      0.139500000000     0.190640000000     0.858100000000     0          
H7       H      0.127300000000     0.216000000000     0.850200000000     0          
C18      C      0.376000000000     0.335980000000     0.830100000000     0          
H8       H      0.406000000000     0.331400000000     0.807600000000     0          
C19      C      0.347500000000     0.306180000000     0.852200000000     0          
H9       H      0.358800000000     0.280500000000     0.845200000000     0          
C20      C      0.206500000000     0.148040000000     0.896800000000     0          
H10      H      0.240800000000     0.143500000000     0.916600000000     0          
C21      C      0.190200000000     0.278600000000     0.824300000000     0          
H11      H      0.161600000000     0.287800000000     0.847100000000     0          
H12      H      0.213900000000     0.300300000000     0.811900000000     0          
H13      H      0.163900000000     0.266200000000     0.802100000000     0          
Zr3      Zr     0.913230000000     0.998060000000     0.806380000000     0          
O1       O      0.564460000000     0.395790000000     0.708270000000     0          
O2       O      0.936600000000     0.099710000000     0.707450000000     0          
O6       O      0.623700000000     0.440160000000     0.672290000000     0          
O8       O      0.883200000000     0.056730000000     0.668110000000     0          
C1       C      0.608400000000     0.405960000000     0.681810000000     0          
C2       C      0.898700000000     0.090030000000     0.677440000000     0          
C3       C      0.751300000000     0.249870000000     0.523200000000     0          
C4       C      0.641500000000     0.373960000000     0.657560000000     0          
C5       C      0.870300000000     0.122860000000     0.653080000000     0          
O11      O      0.758500000000     0.248180000000     0.656600000000     0          
C6       C      0.684100000000     0.380570000000     0.627090000000     0          
H1       H      0.695400000000     0.406300000000     0.620200000000     0          
C7       C      0.712900000000     0.350050000000     0.604640000000     0          
H2       H      0.742700000000     0.355400000000     0.582300000000     0          
C8       C      0.778500000000     0.219270000000     0.545700000000     0          
H3       H      0.794300000000     0.197800000000     0.530100000000     0          
C9       C      0.891100000000     0.159800000000     0.660800000000     0          
H4       H      0.927000000000     0.164100000000     0.679400000000     0          
C10      C      0.729800000000     0.280360000000     0.547430000000     0          
H5       H      0.713200000000     0.302300000000     0.533100000000     0          
C11      C      0.812600000000     0.185450000000     0.611930000000     0          
C12      C      0.823800000000     0.117070000000     0.622950000000     0          
H6       H      0.811900000000     0.091600000000     0.615300000000     0          
C13      C      0.698900000000     0.313220000000     0.614340000000     0          
C14      C      0.783600000000     0.218600000000     0.589600000000     0          
C15      C      0.758000000000     0.249600000000     0.612580000000     0          
C16      C      0.731200000000     0.280750000000     0.591860000000     0          
C17      C      0.860500000000     0.190640000000     0.641900000000     0          
H7       H      0.872700000000     0.216000000000     0.649800000000     0          
C18      C      0.624000000000     0.335980000000     0.669900000000     0          
H8       H      0.594000000000     0.331400000000     0.692400000000     0          
C19      C      0.652500000000     0.306180000000     0.647800000000     0          
H9       H      0.641200000000     0.280500000000     0.654800000000     0          
C20      C      0.793500000000     0.148040000000     0.603200000000     0          
H10      H      0.759200000000     0.143500000000     0.583400000000     0          
C21      C      0.809800000000     0.278600000000     0.675700000000     0          
H11      H      0.838400000000     0.287800000000     0.652900000000     0          
H12      H      0.786100000000     0.300300000000     0.688100000000     0          
H13      H      0.836100000000     0.266200000000     0.697900000000     0          
Zr3      Zr     0.086770000000     0.001940000000     0.306380000000     0          
O1       O      0.435540000000     0.604210000000     0.208270000000     0          
O2       O      0.063400000000     0.900290000000     0.207450000000     0          
O6       O      0.376300000000     0.559840000000     0.172290000000     0          
O8       O      0.116800000000     0.943270000000     0.168110000000     0          
C1       C      0.391600000000     0.594040000000     0.181810000000     0          
C2       C      0.101300000000     0.909970000000     0.177440000000     0          
C3       C      0.248700000000     0.750130000000     0.023200000000     0          
C4       C      0.358500000000     0.626040000000     0.157560000000     0          
C5       C      0.129700000000     0.877140000000     0.153080000000     0          
O11      O      0.241500000000     0.751820000000     0.156600000000     0          
C6       C      0.315900000000     0.619430000000     0.127090000000     0          
H1       H      0.304600000000     0.593700000000     0.120200000000     0          
C7       C      0.287100000000     0.649950000000     0.104640000000     0          
H2       H      0.257300000000     0.644600000000     0.082300000000     0          
C8       C      0.221500000000     0.780730000000     0.045700000000     0          
H3       H      0.205700000000     0.802200000000     0.030100000000     0          
C9       C      0.108900000000     0.840200000000     0.160800000000     0          
H4       H      0.073000000000     0.835900000000     0.179400000000     0          
C10      C      0.270200000000     0.719640000000     0.047430000000     0          
H5       H      0.286800000000     0.697700000000     0.033100000000     0          
C11      C      0.187400000000     0.814550000000     0.111930000000     0          
C12      C      0.176200000000     0.882930000000     0.122950000000     0          
H6       H      0.188100000000     0.908400000000     0.115300000000     0          
C13      C      0.301100000000     0.686780000000     0.114340000000     0          
C14      C      0.216400000000     0.781400000000     0.089600000000     0          
C15      C      0.242000000000     0.750400000000     0.112580000000     0          
C16      C      0.268800000000     0.719250000000     0.091860000000     0          
C17      C      0.139500000000     0.809360000000     0.141900000000     0          
H7       H      0.127300000000     0.784000000000     0.149800000000     0          
C18      C      0.376000000000     0.664020000000     0.169900000000     0          
H8       H      0.406000000000     0.668600000000     0.192400000000     0          
C19      C      0.347500000000     0.693820000000     0.147800000000     0          
H9       H      0.358800000000     0.719500000000     0.154800000000     0          
C20      C      0.206500000000     0.851960000000     0.103200000000     0          
H10      H      0.240800000000     0.856500000000     0.083400000000     0          
C21      C      0.190200000000     0.721400000000     0.175700000000     0          
H11      H      0.161600000000     0.712200000000     0.152900000000     0          
H12      H      0.213900000000     0.699700000000     0.188100000000     0          
H13      H      0.163900000000     0.733800000000     0.197900000000     0          


