data_MAFWEY

_audit_creation_method RASPA-1.0
_audit_creation_date 2020-11-2
_audit_author_name 'Rocio Bueno-Perez'

_cell_length_a    29.3248
_cell_length_b    29.3248
_cell_length_c    29.3248
_cell_angle_alpha 90
_cell_angle_beta  90
_cell_angle_gamma 90
_cell_volume      25217.7

_symmetry_cell_setting          triclinic
_symmetry_space_group_name_Hall 'P 1'
_symmetry_space_group_name_H-M  'P 1'
_symmetry_Int_Tables_number     1

_symmetry_equiv_pos_as_xyz 'x,y,z'

loop_
_atom_site_label
_atom_site_type_symbol
_atom_site_fract_x
_atom_site_fract_y
_atom_site_fract_z
_atom_site_charge
C1       C      0.632300000000     0.687500000000     0.512200000000     0          
H2       H      0.602300000000     0.694400000000     0.522400000000     0          
C3       C      0.665400000000     0.720700000000     0.512200000000     0          
H4       H      0.658600000000     0.750600000000     0.522500000000     0          
C5       C      0.132300000000     0.687500000000     0.012200000000     0          
H6       H      0.102300000000     0.694400000000     0.022400000000     0          
C7       C      0.165400000000     0.720700000000     0.012200000000     0          
H8       H      0.158600000000     0.750600000000     0.022500000000     0          
C9       C      0.867700000000     0.312500000000     0.012200000000     0          
H10      H      0.897700000000     0.305600000000     0.022400000000     0          
C11      C      0.834600000000     0.279300000000     0.012200000000     0          
H12      H      0.841400000000     0.249400000000     0.022500000000     0          
C13      C      0.867700000000     0.812500000000     0.512200000000     0          
H14      H      0.897700000000     0.805600000000     0.522400000000     0          
C15      C      0.834600000000     0.779300000000     0.512200000000     0          
H16      H      0.841400000000     0.749400000000     0.522500000000     0          
C17      C      0.867700000000     0.187500000000     0.487800000000     0          
H18      H      0.897700000000     0.194400000000     0.477600000000     0          
C19      C      0.834600000000     0.220700000000     0.487800000000     0          
H20      H      0.841400000000     0.250600000000     0.477500000000     0          
C21      C      0.632300000000     0.312500000000     0.487800000000     0          
H22      H      0.602300000000     0.305600000000     0.477600000000     0          
C23      C      0.665400000000     0.279300000000     0.487800000000     0          
H24      H      0.658600000000     0.249400000000     0.477500000000     0          
C25      C      0.512200000000     0.632300000000     0.687500000000     0          
H26      H      0.522400000000     0.602300000000     0.694400000000     0          
C27      C      0.512200000000     0.665400000000     0.720700000000     0          
H28      H      0.522500000000     0.658600000000     0.750600000000     0          
C29      C      0.012200000000     0.632300000000     0.187500000000     0          
H30      H      0.022400000000     0.602300000000     0.194400000000     0          
C31      C      0.012200000000     0.665400000000     0.220700000000     0          
H32      H      0.022500000000     0.658600000000     0.250600000000     0          
C33      C      0.512200000000     0.867700000000     0.812500000000     0          
H34      H      0.522400000000     0.897700000000     0.805600000000     0          
C35      C      0.512200000000     0.834600000000     0.779300000000     0          
H36      H      0.522500000000     0.841400000000     0.749400000000     0          
C37      C      0.012200000000     0.867700000000     0.312500000000     0          
H38      H      0.022400000000     0.897700000000     0.305600000000     0          
C39      C      0.012200000000     0.834600000000     0.279300000000     0          
H40      H      0.022500000000     0.841400000000     0.249400000000     0          
N41      N      0.007500000000     0.777500000000     0.244100000000     0          
C42      C      0.487800000000     0.867700000000     0.187500000000     0          
H43      H      0.477600000000     0.897700000000     0.194400000000     0          
C44      C      0.487800000000     0.834600000000     0.220700000000     0          
H45      H      0.477500000000     0.841400000000     0.250600000000     0          
N46      N      0.492500000000     0.777500000000     0.255900000000     0          
C47      C      0.487800000000     0.632300000000     0.312500000000     0          
H48      H      0.477600000000     0.602300000000     0.305600000000     0          
C49      C      0.487800000000     0.665400000000     0.279300000000     0          
H50      H      0.477500000000     0.658600000000     0.249400000000     0          
C51      C      0.687500000000     0.512200000000     0.632300000000     0          
H52      H      0.694400000000     0.522400000000     0.602300000000     0          
C53      C      0.720700000000     0.512200000000     0.665400000000     0          
H54      H      0.750600000000     0.522500000000     0.658600000000     0          
C55      C      0.812500000000     0.512200000000     0.867700000000     0          
H56      H      0.805600000000     0.522400000000     0.897700000000     0          
C57      C      0.779300000000     0.512200000000     0.834600000000     0          
H58      H      0.749400000000     0.522500000000     0.841400000000     0          
N59      N      0.755900000000     0.492500000000     0.277500000000     0          
C60      C      0.187500000000     0.987800000000     0.367700000000     0          
H61      H      0.194400000000     0.977600000000     0.397700000000     0          
C62      C      0.220700000000     0.987800000000     0.334600000000     0          
H63      H      0.250600000000     0.977500000000     0.341400000000     0          
C64      C      0.312500000000     0.987800000000     0.132300000000     0          
H65      H      0.305600000000     0.977600000000     0.102300000000     0          
C66      C      0.279300000000     0.987800000000     0.165400000000     0          
H67      H      0.249400000000     0.977500000000     0.158600000000     0          
C68      C      0.687500000000     0.632300000000     0.487800000000     0          
H69      H      0.694400000000     0.602300000000     0.477600000000     0          
C70      C      0.720700000000     0.665400000000     0.487800000000     0          
H71      H      0.750600000000     0.658600000000     0.477500000000     0          
C72      C      0.187500000000     0.632300000000     0.987800000000     0          
H73      H      0.194400000000     0.602300000000     0.977600000000     0          
C74      C      0.220700000000     0.665400000000     0.987800000000     0          
H75      H      0.250600000000     0.658600000000     0.977500000000     0          
C76      C      0.812500000000     0.367700000000     0.987800000000     0          
H77      H      0.805600000000     0.397700000000     0.977600000000     0          
C78      C      0.779300000000     0.334600000000     0.987800000000     0          
H79      H      0.749400000000     0.341400000000     0.977500000000     0          
C80      C      0.812500000000     0.867700000000     0.487800000000     0          
H81      H      0.805600000000     0.897700000000     0.477600000000     0          
C82      C      0.779300000000     0.834600000000     0.487800000000     0          
H83      H      0.749400000000     0.841400000000     0.477500000000     0          
N84      N      0.744100000000     0.777500000000     0.492500000000     0          
C85      C      0.687500000000     0.367700000000     0.512200000000     0          
H86      H      0.694400000000     0.397700000000     0.522400000000     0          
C87      C      0.720700000000     0.334600000000     0.512200000000     0          
H88      H      0.750600000000     0.341400000000     0.522500000000     0          
N89      N      0.755900000000     0.277500000000     0.507500000000     0          
N90      N      0.755900000000     0.777500000000     0.007500000000     0          
N91      N      0.255900000000     0.777500000000     0.507500000000     0          
C92      C      0.812500000000     0.132300000000     0.512200000000     0          
H93      H      0.805600000000     0.102300000000     0.522400000000     0          
C94      C      0.779300000000     0.165400000000     0.512200000000     0          
H95      H      0.749400000000     0.158600000000     0.522500000000     0          
C96      C      0.132300000000     0.012200000000     0.312500000000     0          
H97      H      0.102300000000     0.022400000000     0.305600000000     0          
C98      C      0.165400000000     0.012200000000     0.279300000000     0          
H99      H      0.158600000000     0.022500000000     0.249400000000     0          
N100     N      0.222500000000     0.007500000000     0.244100000000     0          
C101     C      0.367700000000     0.012200000000     0.187500000000     0          
H102     H      0.397700000000     0.022400000000     0.194400000000     0          
C103     C      0.334600000000     0.012200000000     0.220700000000     0          
H104     H      0.341400000000     0.022500000000     0.250600000000     0          
N105     N      0.777500000000     0.507500000000     0.255900000000     0          
C106     C      0.867700000000     0.487800000000     0.812500000000     0          
H107     H      0.897700000000     0.477600000000     0.805600000000     0          
C108     C      0.834600000000     0.487800000000     0.779300000000     0          
H109     H      0.841400000000     0.477500000000     0.749400000000     0          
C110     C      0.632300000000     0.487800000000     0.687500000000     0          
H111     H      0.602300000000     0.477600000000     0.694400000000     0          
C112     C      0.665400000000     0.487800000000     0.720700000000     0          
H113     H      0.658600000000     0.477500000000     0.750600000000     0          
N114     N      0.722500000000     0.492500000000     0.755900000000     0          
N115     N      0.222500000000     0.992500000000     0.755900000000     0          
C116     C      0.512200000000     0.687500000000     0.367700000000     0          
H117     H      0.522400000000     0.694400000000     0.397700000000     0          
C118     C      0.512200000000     0.720700000000     0.334600000000     0          
H119     H      0.522500000000     0.750600000000     0.341400000000     0          
N120     N      0.007500000000     0.255900000000     0.277500000000     0          
C121     C      0.512200000000     0.812500000000     0.132300000000     0          
H122     H      0.522400000000     0.805600000000     0.102300000000     0          
C123     C      0.512200000000     0.779300000000     0.165400000000     0          
H124     H      0.522500000000     0.749400000000     0.158600000000     0          
C125     C      0.487800000000     0.687500000000     0.632300000000     0          
H126     H      0.477600000000     0.694400000000     0.602300000000     0          
C127     C      0.487800000000     0.720700000000     0.665400000000     0          
H128     H      0.477500000000     0.750600000000     0.658600000000     0          
C129     C      0.987800000000     0.687500000000     0.132300000000     0          
H130     H      0.977600000000     0.694400000000     0.102300000000     0          
C131     C      0.987800000000     0.720700000000     0.165400000000     0          
H132     H      0.977500000000     0.750600000000     0.158600000000     0          
C133     C      0.487800000000     0.812500000000     0.867700000000     0          
H134     H      0.477600000000     0.805600000000     0.897700000000     0          
C135     C      0.487800000000     0.779300000000     0.834600000000     0          
H136     H      0.477500000000     0.749400000000     0.841400000000     0          
N137     N      0.492500000000     0.744100000000     0.777500000000     0          
C138     C      0.987800000000     0.812500000000     0.367700000000     0          
H139     H      0.977600000000     0.805600000000     0.397700000000     0          
C140     C      0.987800000000     0.779300000000     0.334600000000     0          
H141     H      0.977500000000     0.749400000000     0.341400000000     0          
N142     N      0.277500000000     0.744100000000     0.992500000000     0          
N143     N      0.777500000000     0.244100000000     0.992500000000     0          
C144     C      0.987800000000     0.367700000000     0.812500000000     0          
H145     H      0.977600000000     0.397700000000     0.805600000000     0          
C146     C      0.987800000000     0.334600000000     0.779300000000     0          
H147     H      0.977500000000     0.341400000000     0.749400000000     0          
N148     N      0.992500000000     0.277500000000     0.744100000000     0          
C149     C      0.987800000000     0.132300000000     0.687500000000     0          
H150     H      0.977600000000     0.102300000000     0.694400000000     0          
C151     C      0.987800000000     0.165400000000     0.720700000000     0          
H152     H      0.977500000000     0.158600000000     0.750600000000     0          
N153     N      0.007500000000     0.722500000000     0.744100000000     0          
N154     N      0.507500000000     0.277500000000     0.755900000000     0          
C155     C      0.312500000000     0.487800000000     0.367700000000     0          
H156     H      0.305600000000     0.477600000000     0.397700000000     0          
C157     C      0.279300000000     0.487800000000     0.334600000000     0          
H158     H      0.249400000000     0.477500000000     0.341400000000     0          
N159     N      0.755900000000     0.992500000000     0.222500000000     0          
C160     C      0.187500000000     0.487800000000     0.132300000000     0          
H161     H      0.194400000000     0.477600000000     0.102300000000     0          
C162     C      0.220700000000     0.487800000000     0.165400000000     0          
H163     H      0.250600000000     0.477500000000     0.158600000000     0          
N164     N      0.255900000000     0.492500000000     0.222500000000     0          
C165     C      0.812500000000     0.012200000000     0.632300000000     0          
H166     H      0.805600000000     0.022400000000     0.602300000000     0          
C167     C      0.779300000000     0.012200000000     0.665400000000     0          
H168     H      0.749400000000     0.022500000000     0.658600000000     0          
C169     C      0.687500000000     0.012200000000     0.867700000000     0          
H170     H      0.694400000000     0.022400000000     0.897700000000     0          
C171     C      0.720700000000     0.012200000000     0.834600000000     0          
H172     H      0.750600000000     0.022500000000     0.841400000000     0          
N173     N      0.244100000000     0.222500000000     0.992500000000     0          
C174     C      0.867700000000     0.987800000000     0.687500000000     0          
H175     H      0.897700000000     0.977600000000     0.694400000000     0          
C176     C      0.834600000000     0.987800000000     0.720700000000     0          
H177     H      0.841400000000     0.977500000000     0.750600000000     0          
N178     N      0.777500000000     0.992500000000     0.755900000000     0          
C179     C      0.632300000000     0.987800000000     0.812500000000     0          
H180     H      0.602300000000     0.977600000000     0.805600000000     0          
C181     C      0.665400000000     0.987800000000     0.779300000000     0          
H182     H      0.658600000000     0.977500000000     0.749400000000     0          
N183     N      0.222500000000     0.492500000000     0.744100000000     0          
C184     C      0.132300000000     0.512200000000     0.187500000000     0          
H185     H      0.102300000000     0.522400000000     0.194400000000     0          
C186     C      0.165400000000     0.512200000000     0.220700000000     0          
H187     H      0.158600000000     0.522500000000     0.250600000000     0          
C188     C      0.367700000000     0.512200000000     0.312500000000     0          
H189     H      0.397700000000     0.522400000000     0.305600000000     0          
C190     C      0.334600000000     0.512200000000     0.279300000000     0          
H191     H      0.341400000000     0.522500000000     0.249400000000     0          
C192     C      0.012200000000     0.312500000000     0.867700000000     0          
H193     H      0.022400000000     0.305600000000     0.897700000000     0          
C194     C      0.012200000000     0.279300000000     0.834600000000     0          
H195     H      0.022500000000     0.249400000000     0.841400000000     0          
N196     N      0.507500000000     0.255900000000     0.222500000000     0          
C197     C      0.012200000000     0.187500000000     0.632300000000     0          
H198     H      0.022400000000     0.194400000000     0.602300000000     0          
C199     C      0.012200000000     0.220700000000     0.665400000000     0          
H200     H      0.022500000000     0.250600000000     0.658600000000     0          
Zr201    Zr     0.583700000000     0.500000000000     0.500000000000     0          
Zr202    Zr     0.583700000000     0.000000000000     0.000000000000     0          
Zr203    Zr     0.083700000000     0.500000000000     0.000000000000     0          
Zr204    Zr     0.083700000000     0.000000000000     0.500000000000     0          
Zr205    Zr     0.416300000000     0.500000000000     0.500000000000     0          
Zr206    Zr     0.416300000000     0.000000000000     0.000000000000     0          
Zr207    Zr     0.916300000000     0.500000000000     0.000000000000     0          
Zr208    Zr     0.916300000000     0.000000000000     0.500000000000     0          
Zr209    Zr     0.500000000000     0.583700000000     0.500000000000     0          
Zr210    Zr     0.500000000000     0.083700000000     0.000000000000     0          
Zr211    Zr     0.000000000000     0.583700000000     0.000000000000     0          
Zr212    Zr     0.000000000000     0.083700000000     0.500000000000     0          
Zr213    Zr     0.500000000000     0.416300000000     0.500000000000     0          
Zr214    Zr     0.500000000000     0.916300000000     0.000000000000     0          
Zr215    Zr     0.000000000000     0.416300000000     0.000000000000     0          
Zr216    Zr     0.000000000000     0.916300000000     0.500000000000     0          
Zr217    Zr     0.500000000000     0.500000000000     0.583700000000     0          
Zr218    Zr     0.500000000000     0.000000000000     0.083700000000     0          
Zr219    Zr     0.000000000000     0.500000000000     0.083700000000     0          
Zr220    Zr     0.000000000000     0.000000000000     0.583700000000     0          
Zr221    Zr     0.500000000000     0.500000000000     0.416300000000     0          
Zr222    Zr     0.500000000000     0.000000000000     0.916300000000     0          
Zr223    Zr     0.000000000000     0.500000000000     0.916300000000     0          
Zr224    Zr     0.000000000000     0.000000000000     0.416300000000     0          
O225     O      0.540500000000     0.459500000000     0.459500000000     0          
O226     O      0.540500000000     0.959500000000     0.959500000000     0          
O227     O      0.040500000000     0.459500000000     0.959500000000     0          
O228     O      0.040500000000     0.959500000000     0.459500000000     0          
O229     O      0.459500000000     0.540500000000     0.459500000000     0          
O230     O      0.459500000000     0.040500000000     0.959500000000     0          
O231     O      0.959500000000     0.540500000000     0.959500000000     0          
O232     O      0.959500000000     0.040500000000     0.459500000000     0          
O233     O      0.459500000000     0.459500000000     0.540500000000     0          
O234     O      0.459500000000     0.959500000000     0.040500000000     0          
O235     O      0.959500000000     0.459500000000     0.040500000000     0          
O236     O      0.959500000000     0.959500000000     0.540500000000     0          
O237     O      0.540500000000     0.540500000000     0.540500000000     0          
O238     O      0.540500000000     0.040500000000     0.040500000000     0          
O239     O      0.040500000000     0.540500000000     0.040500000000     0          
O240     O      0.040500000000     0.040500000000     0.540500000000     0          
O241     O      0.459500000000     0.540500000000     0.540500000000     0          
O242     O      0.459500000000     0.040500000000     0.040500000000     0          
O243     O      0.959500000000     0.540500000000     0.040500000000     0          
O244     O      0.959500000000     0.040500000000     0.540500000000     0          
O245     O      0.540500000000     0.459500000000     0.540500000000     0          
O246     O      0.540500000000     0.959500000000     0.040500000000     0          
O247     O      0.040500000000     0.459500000000     0.040500000000     0          
O248     O      0.040500000000     0.959500000000     0.540500000000     0          
O249     O      0.459500000000     0.459500000000     0.459500000000     0          
O250     O      0.459500000000     0.959500000000     0.959500000000     0          
O251     O      0.959500000000     0.459500000000     0.959500000000     0          
O252     O      0.959500000000     0.959500000000     0.459500000000     0          
O253     O      0.540500000000     0.540500000000     0.459500000000     0          
O254     O      0.540500000000     0.040500000000     0.959500000000     0          
O255     O      0.040500000000     0.540500000000     0.959500000000     0          
O256     O      0.040500000000     0.040500000000     0.459500000000     0          
O257     O      0.621300000000     0.566200000000     0.500000000000     0          
O258     O      0.621300000000     0.066200000000     0.000000000000     0          
C259     C      0.631000000000     0.188800000000     0.000000000000     0          
C260     C      0.664100000000     0.222000000000     0.000000000000     0          
H261     H      0.599700000000     0.197100000000     0.000000000000     0          
H262     H      0.655800000000     0.253300000000     0.000000000000     0          
O263     O      0.121300000000     0.566200000000     0.000000000000     0          
O264     O      0.121300000000     0.066200000000     0.500000000000     0          
O265     O      0.378700000000     0.433800000000     0.500000000000     0          
O266     O      0.378700000000     0.933800000000     0.000000000000     0          
C267     C      0.369000000000     0.811200000000     0.000000000000     0          
C268     C      0.335900000000     0.778000000000     0.000000000000     0          
H269     H      0.400300000000     0.802900000000     0.000000000000     0          
H270     H      0.344200000000     0.746700000000     0.000000000000     0          
O271     O      0.878700000000     0.433800000000     0.000000000000     0          
O272     O      0.878700000000     0.933800000000     0.500000000000     0          
O273     O      0.378700000000     0.566200000000     0.500000000000     0          
C274     C      0.369000000000     0.688800000000     0.500000000000     0          
C275     C      0.335900000000     0.722000000000     0.500000000000     0          
H276     H      0.400300000000     0.697100000000     0.500000000000     0          
H277     H      0.344200000000     0.753300000000     0.500000000000     0          
O278     O      0.378700000000     0.066200000000     0.000000000000     0          
C279     C      0.369000000000     0.188800000000     0.000000000000     0          
C280     C      0.335900000000     0.222000000000     0.000000000000     0          
H281     H      0.400300000000     0.197100000000     0.000000000000     0          
H282     H      0.344200000000     0.253300000000     0.000000000000     0          
O283     O      0.878700000000     0.566200000000     0.000000000000     0          
C284     C      0.869000000000     0.688800000000     0.000000000000     0          
C285     C      0.835900000000     0.722000000000     0.000000000000     0          
H286     H      0.900300000000     0.697100000000     0.000000000000     0          
H287     H      0.844200000000     0.753300000000     0.000000000000     0          
O288     O      0.878700000000     0.066200000000     0.500000000000     0          
O289     O      0.621300000000     0.433800000000     0.500000000000     0          
O290     O      0.621300000000     0.933800000000     0.000000000000     0          
C291     C      0.631000000000     0.811200000000     0.000000000000     0          
C292     C      0.664100000000     0.778000000000     0.000000000000     0          
H293     H      0.599700000000     0.802900000000     0.000000000000     0          
H294     H      0.655800000000     0.746700000000     0.000000000000     0          
O295     O      0.121300000000     0.433800000000     0.000000000000     0          
C296     C      0.131000000000     0.311200000000     0.000000000000     0          
C297     C      0.164100000000     0.278000000000     0.000000000000     0          
H298     H      0.099700000000     0.302900000000     0.000000000000     0          
H299     H      0.155800000000     0.246700000000     0.000000000000     0          
O300     O      0.121300000000     0.933800000000     0.500000000000     0          
C301     C      0.131000000000     0.811200000000     0.500000000000     0          
C302     C      0.164100000000     0.778000000000     0.500000000000     0          
H303     H      0.099700000000     0.802900000000     0.500000000000     0          
H304     H      0.155800000000     0.746700000000     0.500000000000     0          
O305     O      0.500000000000     0.621300000000     0.566200000000     0          
O306     O      0.500000000000     0.121300000000     0.066200000000     0          
C307     C      0.500000000000     0.131000000000     0.188800000000     0          
C308     C      0.500000000000     0.164100000000     0.222000000000     0          
H309     H      0.500000000000     0.099700000000     0.197100000000     0          
H310     H      0.500000000000     0.155800000000     0.253300000000     0          
O311     O      0.000000000000     0.621300000000     0.066200000000     0          
O312     O      0.000000000000     0.121300000000     0.566200000000     0          
O313     O      0.500000000000     0.378700000000     0.433800000000     0          
C314     C      0.500000000000     0.369000000000     0.311200000000     0          
C315     C      0.500000000000     0.335900000000     0.278000000000     0          
H316     H      0.500000000000     0.400300000000     0.302900000000     0          
H317     H      0.500000000000     0.344200000000     0.246700000000     0          
O318     O      0.500000000000     0.878700000000     0.933800000000     0          
O319     O      0.000000000000     0.378700000000     0.933800000000     0          
O320     O      0.000000000000     0.878700000000     0.433800000000     0          
O321     O      0.500000000000     0.378700000000     0.566200000000     0          
C322     C      0.500000000000     0.369000000000     0.688800000000     0          
C323     C      0.500000000000     0.335900000000     0.722000000000     0          
H324     H      0.500000000000     0.400300000000     0.697100000000     0          
H325     H      0.500000000000     0.344200000000     0.753300000000     0          
O326     O      0.500000000000     0.878700000000     0.066200000000     0          
O327     O      0.000000000000     0.378700000000     0.066200000000     0          
C328     C      0.000000000000     0.369000000000     0.188800000000     0          
C329     C      0.000000000000     0.335900000000     0.222000000000     0          
H330     H      0.000000000000     0.400300000000     0.197100000000     0          
H331     H      0.000000000000     0.344200000000     0.253300000000     0          
O332     O      0.000000000000     0.878700000000     0.566200000000     0          
C333     C      0.000000000000     0.869000000000     0.688800000000     0          
C334     C      0.000000000000     0.835900000000     0.722000000000     0          
H335     H      0.000000000000     0.900300000000     0.697100000000     0          
H336     H      0.000000000000     0.844200000000     0.753300000000     0          
O337     O      0.500000000000     0.621300000000     0.433800000000     0          
O338     O      0.500000000000     0.121300000000     0.933800000000     0          
C339     C      0.500000000000     0.131000000000     0.811200000000     0          
C340     C      0.500000000000     0.164100000000     0.778000000000     0          
H341     H      0.500000000000     0.099700000000     0.802900000000     0          
H342     H      0.500000000000     0.155800000000     0.746700000000     0          
O343     O      0.000000000000     0.621300000000     0.933800000000     0          
C344     C      0.000000000000     0.631000000000     0.811200000000     0          
C345     C      0.000000000000     0.664100000000     0.778000000000     0          
H346     H      0.000000000000     0.599700000000     0.802900000000     0          
H347     H      0.000000000000     0.655800000000     0.746700000000     0          
O348     O      0.000000000000     0.121300000000     0.433800000000     0          
C349     C      0.000000000000     0.131000000000     0.311200000000     0          
C350     C      0.000000000000     0.164100000000     0.278000000000     0          
H351     H      0.000000000000     0.099700000000     0.302900000000     0          
H352     H      0.000000000000     0.155800000000     0.246700000000     0          
O353     O      0.566200000000     0.500000000000     0.621300000000     0          
O354     O      0.566200000000     0.000000000000     0.121300000000     0          
C355     C      0.688800000000     0.000000000000     0.131000000000     0          
C356     C      0.722000000000     0.000000000000     0.164100000000     0          
H357     H      0.697100000000     0.000000000000     0.099700000000     0          
H358     H      0.753300000000     0.000000000000     0.155800000000     0          
O359     O      0.066200000000     0.500000000000     0.121300000000     0          
O360     O      0.066200000000     0.000000000000     0.621300000000     0          
C361     C      0.188800000000     0.000000000000     0.631000000000     0          
C362     C      0.222000000000     0.000000000000     0.664100000000     0          
H363     H      0.197100000000     0.000000000000     0.599700000000     0          
H364     H      0.253300000000     0.000000000000     0.655800000000     0          
O365     O      0.433800000000     0.500000000000     0.378700000000     0          
O366     O      0.433800000000     0.000000000000     0.878700000000     0          
C367     C      0.311200000000     0.000000000000     0.869000000000     0          
C368     C      0.278000000000     0.000000000000     0.835900000000     0          
H369     H      0.302900000000     0.000000000000     0.900300000000     0          
H370     H      0.246700000000     0.000000000000     0.844200000000     0          
O371     O      0.933800000000     0.500000000000     0.878700000000     0          
O372     O      0.933800000000     0.000000000000     0.378700000000     0          
C373     C      0.811200000000     0.000000000000     0.369000000000     0          
C374     C      0.778000000000     0.000000000000     0.335900000000     0          
H375     H      0.802900000000     0.000000000000     0.400300000000     0          
H376     H      0.746700000000     0.000000000000     0.344200000000     0          
O377     O      0.566200000000     0.500000000000     0.378700000000     0          
C378     C      0.688800000000     0.500000000000     0.369000000000     0          
C379     C      0.722000000000     0.500000000000     0.335900000000     0          
H380     H      0.697100000000     0.500000000000     0.400300000000     0          
H381     H      0.753300000000     0.500000000000     0.344200000000     0          
O382     O      0.566200000000     0.000000000000     0.878700000000     0          
O383     O      0.066200000000     0.500000000000     0.878700000000     0          
C384     C      0.188800000000     0.500000000000     0.869000000000     0          
C385     C      0.222000000000     0.500000000000     0.835900000000     0          
H386     H      0.197100000000     0.500000000000     0.900300000000     0          
H387     H      0.253300000000     0.500000000000     0.844200000000     0          
O388     O      0.066200000000     0.000000000000     0.378700000000     0          
O389     O      0.433800000000     0.500000000000     0.621300000000     0          
C390     C      0.311200000000     0.500000000000     0.631000000000     0          
C391     C      0.278000000000     0.500000000000     0.664100000000     0          
H392     H      0.302900000000     0.500000000000     0.599700000000     0          
H393     H      0.246700000000     0.500000000000     0.655800000000     0          
O394     O      0.433800000000     0.000000000000     0.121300000000     0          
O395     O      0.933800000000     0.500000000000     0.121300000000     0          
C396     C      0.811200000000     0.500000000000     0.131000000000     0          
C397     C      0.778000000000     0.500000000000     0.164100000000     0          
H398     H      0.802900000000     0.500000000000     0.099700000000     0          
H399     H      0.746700000000     0.500000000000     0.155800000000     0          
O400     O      0.933800000000     0.000000000000     0.621300000000     0          
O401     O      0.566200000000     0.621300000000     0.500000000000     0          
O402     O      0.566200000000     0.121300000000     0.000000000000     0          
C403     C      0.688800000000     0.131000000000     0.000000000000     0          
C404     C      0.722000000000     0.164100000000     0.000000000000     0          
H405     H      0.697100000000     0.099700000000     0.000000000000     0          
H406     H      0.753300000000     0.155800000000     0.000000000000     0          
O407     O      0.066200000000     0.621300000000     0.000000000000     0          
O408     O      0.066200000000     0.121300000000     0.500000000000     0          
O409     O      0.433800000000     0.378700000000     0.500000000000     0          
O410     O      0.433800000000     0.878700000000     0.000000000000     0          
C411     C      0.311200000000     0.869000000000     0.000000000000     0          
C412     C      0.278000000000     0.835900000000     0.000000000000     0          
H413     H      0.302900000000     0.900300000000     0.000000000000     0          
H414     H      0.246700000000     0.844200000000     0.000000000000     0          
O415     O      0.933800000000     0.378700000000     0.000000000000     0          
O416     O      0.933800000000     0.878700000000     0.500000000000     0          
O417     O      0.566200000000     0.378700000000     0.500000000000     0          
O418     O      0.566200000000     0.878700000000     0.000000000000     0          
C419     C      0.688800000000     0.869000000000     0.000000000000     0          
C420     C      0.722000000000     0.835900000000     0.000000000000     0          
H421     H      0.697100000000     0.900300000000     0.000000000000     0          
H422     H      0.753300000000     0.844200000000     0.000000000000     0          
O423     O      0.066200000000     0.378700000000     0.000000000000     0          
C424     C      0.188800000000     0.369000000000     0.000000000000     0          
C425     C      0.222000000000     0.335900000000     0.000000000000     0          
H426     H      0.197100000000     0.400300000000     0.000000000000     0          
H427     H      0.253300000000     0.344200000000     0.000000000000     0          
O428     O      0.066200000000     0.878700000000     0.500000000000     0          
C429     C      0.188800000000     0.869000000000     0.500000000000     0          
C430     C      0.222000000000     0.835900000000     0.500000000000     0          
H431     H      0.197100000000     0.900300000000     0.500000000000     0          
H432     H      0.253300000000     0.844200000000     0.500000000000     0          
O433     O      0.433800000000     0.621300000000     0.500000000000     0          
C434     C      0.311200000000     0.631000000000     0.500000000000     0          
C435     C      0.278000000000     0.664100000000     0.500000000000     0          
H436     H      0.302900000000     0.599700000000     0.500000000000     0          
H437     H      0.246700000000     0.655800000000     0.500000000000     0          
O438     O      0.433800000000     0.121300000000     0.000000000000     0          
C439     C      0.311200000000     0.131000000000     0.000000000000     0          
C440     C      0.278000000000     0.164100000000     0.000000000000     0          
H441     H      0.302900000000     0.099700000000     0.000000000000     0          
H442     H      0.246700000000     0.155800000000     0.000000000000     0          
O443     O      0.933800000000     0.621300000000     0.000000000000     0          
C444     C      0.811200000000     0.631000000000     0.000000000000     0          
C445     C      0.778000000000     0.664100000000     0.000000000000     0          
H446     H      0.802900000000     0.599700000000     0.000000000000     0          
H447     H      0.746700000000     0.655800000000     0.000000000000     0          
O448     O      0.933800000000     0.121300000000     0.500000000000     0          
O449     O      0.621300000000     0.500000000000     0.433800000000     0          
C450     C      0.631000000000     0.500000000000     0.311200000000     0          
C451     C      0.664100000000     0.500000000000     0.278000000000     0          
H452     H      0.599700000000     0.500000000000     0.302900000000     0          
H453     H      0.655800000000     0.500000000000     0.246700000000     0          
O454     O      0.621300000000     0.000000000000     0.933800000000     0          
O455     O      0.121300000000     0.500000000000     0.933800000000     0          
C456     C      0.131000000000     0.500000000000     0.811200000000     0          
C457     C      0.164100000000     0.500000000000     0.778000000000     0          
H458     H      0.099700000000     0.500000000000     0.802900000000     0          
H459     H      0.155800000000     0.500000000000     0.746700000000     0          
O460     O      0.121300000000     0.000000000000     0.433800000000     0          
O461     O      0.378700000000     0.500000000000     0.566200000000     0          
C462     C      0.369000000000     0.500000000000     0.688800000000     0          
C463     C      0.335900000000     0.500000000000     0.722000000000     0          
H464     H      0.400300000000     0.500000000000     0.697100000000     0          
H465     H      0.344200000000     0.500000000000     0.753300000000     0          
O466     O      0.378700000000     0.000000000000     0.066200000000     0          
O467     O      0.878700000000     0.500000000000     0.066200000000     0          
C468     C      0.869000000000     0.500000000000     0.188800000000     0          
C469     C      0.835900000000     0.500000000000     0.222000000000     0          
H470     H      0.900300000000     0.500000000000     0.197100000000     0          
H471     H      0.844200000000     0.500000000000     0.253300000000     0          
O472     O      0.878700000000     0.000000000000     0.566200000000     0          
O473     O      0.378700000000     0.500000000000     0.433800000000     0          
O474     O      0.378700000000     0.000000000000     0.933800000000     0          
C475     C      0.369000000000     0.000000000000     0.811200000000     0          
C476     C      0.335900000000     0.000000000000     0.778000000000     0          
H477     H      0.400300000000     0.000000000000     0.802900000000     0          
H478     H      0.344200000000     0.000000000000     0.746700000000     0          
O479     O      0.878700000000     0.500000000000     0.933800000000     0          
O480     O      0.878700000000     0.000000000000     0.433800000000     0          
C481     C      0.869000000000     0.000000000000     0.311200000000     0          
C482     C      0.835900000000     0.000000000000     0.278000000000     0          
H483     H      0.900300000000     0.000000000000     0.302900000000     0          
H484     H      0.844200000000     0.000000000000     0.246700000000     0          
O485     O      0.621300000000     0.500000000000     0.566200000000     0          
O486     O      0.621300000000     0.000000000000     0.066200000000     0          
C487     C      0.631000000000     0.000000000000     0.188800000000     0          
C488     C      0.664100000000     0.000000000000     0.222000000000     0          
H489     H      0.599700000000     0.000000000000     0.197100000000     0          
H490     H      0.655800000000     0.000000000000     0.253300000000     0          
O491     O      0.121300000000     0.500000000000     0.066200000000     0          
O492     O      0.121300000000     0.000000000000     0.566200000000     0          
C493     C      0.131000000000     0.000000000000     0.688800000000     0          
C494     C      0.164100000000     0.000000000000     0.722000000000     0          
H495     H      0.099700000000     0.000000000000     0.697100000000     0          
H496     H      0.155800000000     0.000000000000     0.753300000000     0          
O497     O      0.500000000000     0.566200000000     0.378700000000     0          
O498     O      0.500000000000     0.066200000000     0.878700000000     0          
C499     C      0.500000000000     0.188800000000     0.869000000000     0          
C500     C      0.500000000000     0.222000000000     0.835900000000     0          
H501     H      0.500000000000     0.197100000000     0.900300000000     0          
H502     H      0.500000000000     0.253300000000     0.844200000000     0          
O503     O      0.000000000000     0.566200000000     0.878700000000     0          
C504     C      0.000000000000     0.688800000000     0.869000000000     0          
C505     C      0.000000000000     0.722000000000     0.835900000000     0          
H506     H      0.000000000000     0.697100000000     0.900300000000     0          
H507     H      0.000000000000     0.753300000000     0.844200000000     0          
O508     O      0.000000000000     0.066200000000     0.378700000000     0          
C509     C      0.000000000000     0.188800000000     0.369000000000     0          
C510     C      0.000000000000     0.222000000000     0.335900000000     0          
H511     H      0.000000000000     0.197100000000     0.400300000000     0          
H512     H      0.000000000000     0.253300000000     0.344200000000     0          
O513     O      0.500000000000     0.433800000000     0.621300000000     0          
C514     C      0.500000000000     0.311200000000     0.631000000000     0          
C515     C      0.500000000000     0.278000000000     0.664100000000     0          
H516     H      0.500000000000     0.302900000000     0.599700000000     0          
H517     H      0.500000000000     0.246700000000     0.655800000000     0          
O518     O      0.500000000000     0.933800000000     0.121300000000     0          
O519     O      0.000000000000     0.433800000000     0.121300000000     0          
C520     C      0.000000000000     0.311200000000     0.131000000000     0          
C521     C      0.000000000000     0.278000000000     0.164100000000     0          
H522     H      0.000000000000     0.302900000000     0.099700000000     0          
H523     H      0.000000000000     0.246700000000     0.155800000000     0          
O524     O      0.000000000000     0.933800000000     0.621300000000     0          
C525     C      0.000000000000     0.811200000000     0.631000000000     0          
C526     C      0.000000000000     0.778000000000     0.664100000000     0          
H527     H      0.000000000000     0.802900000000     0.599700000000     0          
H528     H      0.000000000000     0.746700000000     0.655800000000     0          
O529     O      0.500000000000     0.566200000000     0.621300000000     0          
O530     O      0.500000000000     0.066200000000     0.121300000000     0          
C531     C      0.500000000000     0.188800000000     0.131000000000     0          
C532     C      0.500000000000     0.222000000000     0.164100000000     0          
H533     H      0.500000000000     0.197100000000     0.099700000000     0          
H534     H      0.500000000000     0.253300000000     0.155800000000     0          
O535     O      0.000000000000     0.566200000000     0.121300000000     0          
O536     O      0.000000000000     0.066200000000     0.621300000000     0          
O537     O      0.500000000000     0.433800000000     0.378700000000     0          
C538     C      0.500000000000     0.311200000000     0.369000000000     0          
C539     C      0.500000000000     0.278000000000     0.335900000000     0          
H540     H      0.500000000000     0.302900000000     0.400300000000     0          
H541     H      0.500000000000     0.246700000000     0.344200000000     0          
O542     O      0.500000000000     0.933800000000     0.878700000000     0          
O543     O      0.000000000000     0.433800000000     0.878700000000     0          
O544     O      0.000000000000     0.933800000000     0.378700000000     0          
C545     C      0.608200000000     0.608200000000     0.500000000000     0          
C546     C      0.643600000000     0.643600000000     0.500000000000     0          
C547     C      0.709400000000     0.709400000000     0.500000000000     0          
N548     N      0.736800000000     0.736800000000     0.500000000000     0          
C549     C      0.608200000000     0.108200000000     0.000000000000     0          
C550     C      0.643600000000     0.143600000000     0.000000000000     0          
C551     C      0.709400000000     0.209400000000     0.000000000000     0          
N552     N      0.736800000000     0.236800000000     0.000000000000     0          
C553     C      0.108200000000     0.608200000000     0.000000000000     0          
C554     C      0.143600000000     0.643600000000     0.000000000000     0          
C555     C      0.209400000000     0.709400000000     0.000000000000     0          
N556     N      0.236800000000     0.736800000000     0.000000000000     0          
C557     C      0.108200000000     0.108200000000     0.500000000000     0          
C558     C      0.391800000000     0.391800000000     0.500000000000     0          
C559     C      0.391800000000     0.891800000000     0.000000000000     0          
C560     C      0.356400000000     0.856400000000     0.000000000000     0          
C561     C      0.290600000000     0.790600000000     0.000000000000     0          
C562     C      0.891800000000     0.391800000000     0.000000000000     0          
C563     C      0.856400000000     0.356400000000     0.000000000000     0          
C564     C      0.790600000000     0.290600000000     0.000000000000     0          
C565     C      0.891800000000     0.891800000000     0.500000000000     0          
C566     C      0.856400000000     0.856400000000     0.500000000000     0          
C567     C      0.790600000000     0.790600000000     0.500000000000     0          
C568     C      0.391800000000     0.608200000000     0.500000000000     0          
C569     C      0.356400000000     0.643600000000     0.500000000000     0          
C570     C      0.290600000000     0.709400000000     0.500000000000     0          
N571     N      0.263200000000     0.736800000000     0.500000000000     0          
C572     C      0.391800000000     0.108200000000     0.000000000000     0          
C573     C      0.356400000000     0.143600000000     0.000000000000     0          
C574     C      0.290600000000     0.209400000000     0.000000000000     0          
C575     C      0.891800000000     0.608200000000     0.000000000000     0          
C576     C      0.856400000000     0.643600000000     0.000000000000     0          
C577     C      0.790600000000     0.709400000000     0.000000000000     0          
N578     N      0.763200000000     0.736800000000     0.000000000000     0          
C579     C      0.891800000000     0.108200000000     0.500000000000     0          
C580     C      0.856400000000     0.143600000000     0.500000000000     0          
C581     C      0.790600000000     0.209400000000     0.500000000000     0          
N582     N      0.763200000000     0.236800000000     0.500000000000     0          
C583     C      0.608200000000     0.391800000000     0.500000000000     0          
C584     C      0.643600000000     0.356400000000     0.500000000000     0          
C585     C      0.709400000000     0.290600000000     0.500000000000     0          
C586     C      0.608200000000     0.891800000000     0.000000000000     0          
C587     C      0.643600000000     0.856400000000     0.000000000000     0          
C588     C      0.709400000000     0.790600000000     0.000000000000     0          
C589     C      0.108200000000     0.391800000000     0.000000000000     0          
C590     C      0.143600000000     0.356400000000     0.000000000000     0          
C591     C      0.209400000000     0.290600000000     0.000000000000     0          
N592     N      0.236800000000     0.263200000000     0.000000000000     0          
C593     C      0.108200000000     0.891800000000     0.500000000000     0          
C594     C      0.143600000000     0.856400000000     0.500000000000     0          
C595     C      0.209400000000     0.790600000000     0.500000000000     0          
C596     C      0.500000000000     0.608200000000     0.608200000000     0          
C597     C      0.500000000000     0.643600000000     0.643600000000     0          
C598     C      0.500000000000     0.709400000000     0.709400000000     0          
N599     N      0.500000000000     0.736800000000     0.736800000000     0          
C600     C      0.500000000000     0.108200000000     0.108200000000     0          
C601     C      0.500000000000     0.143600000000     0.143600000000     0          
C602     C      0.500000000000     0.209400000000     0.209400000000     0          
C603     C      0.000000000000     0.608200000000     0.108200000000     0          
C604     C      0.000000000000     0.643600000000     0.143600000000     0          
C605     C      0.000000000000     0.709400000000     0.209400000000     0          
N606     N      0.000000000000     0.736800000000     0.236800000000     0          
C607     C      0.000000000000     0.108200000000     0.608200000000     0          
C608     C      0.000000000000     0.143600000000     0.643600000000     0          
C609     C      0.000000000000     0.209400000000     0.709400000000     0          
N610     N      0.000000000000     0.236800000000     0.736800000000     0          
C611     C      0.500000000000     0.391800000000     0.391800000000     0          
C612     C      0.500000000000     0.356400000000     0.356400000000     0          
C613     C      0.500000000000     0.290600000000     0.290600000000     0          
N614     N      0.500000000000     0.263200000000     0.263200000000     0          
C615     C      0.500000000000     0.891800000000     0.891800000000     0          
C616     C      0.500000000000     0.856400000000     0.856400000000     0          
C617     C      0.500000000000     0.790600000000     0.790600000000     0          
C618     C      0.000000000000     0.391800000000     0.891800000000     0          
C619     C      0.000000000000     0.356400000000     0.856400000000     0          
C620     C      0.000000000000     0.290600000000     0.790600000000     0          
C621     C      0.000000000000     0.891800000000     0.391800000000     0          
C622     C      0.000000000000     0.856400000000     0.356400000000     0          
C623     C      0.000000000000     0.790600000000     0.290600000000     0          
C624     C      0.500000000000     0.391800000000     0.608200000000     0          
C625     C      0.500000000000     0.356400000000     0.643600000000     0          
C626     C      0.500000000000     0.290600000000     0.709400000000     0          
C627     C      0.500000000000     0.891800000000     0.108200000000     0          
C628     C      0.500000000000     0.856400000000     0.143600000000     0          
C629     C      0.500000000000     0.790600000000     0.209400000000     0          
C630     C      0.000000000000     0.391800000000     0.108200000000     0          
C631     C      0.000000000000     0.356400000000     0.143600000000     0          
C632     C      0.000000000000     0.290600000000     0.209400000000     0          
N633     N      0.000000000000     0.263200000000     0.236800000000     0          
C634     C      0.000000000000     0.891800000000     0.608200000000     0          
C635     C      0.000000000000     0.856400000000     0.643600000000     0          
C636     C      0.000000000000     0.790600000000     0.709400000000     0          
N637     N      0.000000000000     0.763200000000     0.736800000000     0          
C638     C      0.500000000000     0.608200000000     0.391800000000     0          
C639     C      0.500000000000     0.643600000000     0.356400000000     0          
C640     C      0.500000000000     0.709400000000     0.290600000000     0          
N641     N      0.500000000000     0.736800000000     0.263200000000     0          
C642     C      0.500000000000     0.108200000000     0.891800000000     0          
C643     C      0.500000000000     0.143600000000     0.856400000000     0          
C644     C      0.500000000000     0.209400000000     0.790600000000     0          
N645     N      0.500000000000     0.236800000000     0.763200000000     0          
C646     C      0.000000000000     0.608200000000     0.891800000000     0          
C647     C      0.000000000000     0.643600000000     0.856400000000     0          
C648     C      0.000000000000     0.709400000000     0.790600000000     0          
C649     C      0.000000000000     0.108200000000     0.391800000000     0          
C650     C      0.000000000000     0.143600000000     0.356400000000     0          
C651     C      0.000000000000     0.209400000000     0.290600000000     0          
C652     C      0.608200000000     0.500000000000     0.608200000000     0          
C653     C      0.643600000000     0.500000000000     0.643600000000     0          
C654     C      0.709400000000     0.500000000000     0.709400000000     0          
C655     C      0.608200000000     0.000000000000     0.108200000000     0          
C656     C      0.643600000000     0.000000000000     0.143600000000     0          
C657     C      0.709400000000     0.000000000000     0.209400000000     0          
C658     C      0.108200000000     0.500000000000     0.108200000000     0          
C659     C      0.143600000000     0.500000000000     0.143600000000     0          
C660     C      0.209400000000     0.500000000000     0.209400000000     0          
C661     C      0.108200000000     0.000000000000     0.608200000000     0          
C662     C      0.143600000000     0.000000000000     0.643600000000     0          
C663     C      0.209400000000     0.000000000000     0.709400000000     0          
C664     C      0.391800000000     0.500000000000     0.391800000000     0          
C665     C      0.356400000000     0.500000000000     0.356400000000     0          
C666     C      0.290600000000     0.500000000000     0.290600000000     0          
N667     N      0.263200000000     0.500000000000     0.263200000000     0          
C668     C      0.391800000000     0.000000000000     0.891800000000     0          
C669     C      0.356400000000     0.000000000000     0.856400000000     0          
C670     C      0.290600000000     0.000000000000     0.790600000000     0          
N671     N      0.263200000000     0.000000000000     0.763200000000     0          
C672     C      0.891800000000     0.500000000000     0.891800000000     0          
C673     C      0.856400000000     0.500000000000     0.856400000000     0          
C674     C      0.790600000000     0.500000000000     0.790600000000     0          
N675     N      0.763200000000     0.500000000000     0.763200000000     0          
C676     C      0.891800000000     0.000000000000     0.391800000000     0          
C677     C      0.856400000000     0.000000000000     0.356400000000     0          
C678     C      0.790600000000     0.000000000000     0.290600000000     0          
N679     N      0.763200000000     0.000000000000     0.263200000000     0          
C680     C      0.608200000000     0.500000000000     0.391800000000     0          
C681     C      0.643600000000     0.500000000000     0.356400000000     0          
C682     C      0.709400000000     0.500000000000     0.290600000000     0          
C683     C      0.608200000000     0.000000000000     0.891800000000     0          
C684     C      0.643600000000     0.000000000000     0.856400000000     0          
C685     C      0.709400000000     0.000000000000     0.790600000000     0          
N686     N      0.736800000000     0.000000000000     0.763200000000     0          
C687     C      0.108200000000     0.500000000000     0.891800000000     0          
C688     C      0.143600000000     0.500000000000     0.856400000000     0          
C689     C      0.209400000000     0.500000000000     0.790600000000     0          
C690     C      0.108200000000     0.000000000000     0.391800000000     0          
C691     C      0.143600000000     0.000000000000     0.356400000000     0          
C692     C      0.209400000000     0.000000000000     0.290600000000     0          
C693     C      0.391800000000     0.500000000000     0.608200000000     0          
C694     C      0.356400000000     0.500000000000     0.643600000000     0          
C695     C      0.290600000000     0.500000000000     0.709400000000     0          
N696     N      0.263200000000     0.500000000000     0.736800000000     0          
C697     C      0.391800000000     0.000000000000     0.108200000000     0          
C698     C      0.356400000000     0.000000000000     0.143600000000     0          
C699     C      0.290600000000     0.000000000000     0.209400000000     0          
N700     N      0.263200000000     0.000000000000     0.236800000000     0          
C701     C      0.891800000000     0.500000000000     0.108200000000     0          
C702     C      0.856400000000     0.500000000000     0.143600000000     0          
C703     C      0.790600000000     0.500000000000     0.209400000000     0          
C704     C      0.891800000000     0.000000000000     0.608200000000     0          
C705     C      0.856400000000     0.000000000000     0.643600000000     0          
C706     C      0.790600000000     0.000000000000     0.709400000000     0          


