data_NADYUP

_audit_creation_method RASPA-1.0
_audit_creation_date 2020-11-2
_audit_author_name 'Rocio Bueno-Perez'

_cell_length_a    38.5873
_cell_length_b    38.5873
_cell_length_c    38.5873
_cell_angle_alpha 90
_cell_angle_beta  90
_cell_angle_gamma 90
_cell_volume      57455.7

_symmetry_cell_setting          cubic
_symmetry_space_group_name_Hall 'P 1'
_symmetry_space_group_name_H-M  'P 1'
_symmetry_Int_Tables_number     1

_symmetry_equiv_pos_as_xyz 'x,y,z'

loop_
_atom_site_label
_atom_site_type_symbol
_atom_site_fract_x
_atom_site_fract_y
_atom_site_fract_z
_atom_site_charge
C1       C      0.252500000000     0.391840000000     0.017190000000     0          
H1       H      0.253100000000     0.372100000000     0.031900000000     0          
C4       C      0.251430000000     0.427280000000     0.027910000000     0          
C6       C      0.219900000000     0.366290000000     0.123510000000     0          
H2       H      0.199400000000     0.353800000000     0.129100000000     0          
C7       C      0.219000000000     0.392170000000     0.097270000000     0          
H3       H      0.198400000000     0.397300000000     0.085000000000     0          
O3       O      0.222500000000     0.315140000000     0.172120000000     0          
Co1      Co     0.250000000000     0.500000000000     0.000000000000     0          
O1       O      0.217380000000     0.217380000000     0.217380000000     0          
O2       O      0.240680000000     0.303210000000     0.240680000000     0          
Zr1      Zr     0.213360000000     0.276210000000     0.213360000000     0          
N1       N      0.250600000000     0.449790000000     0.000000000000     0          
C2       C      0.250000000000     0.409630000000     0.090370000000     0          
C3       C      0.250000000000     0.359270000000     0.140730000000     0          
C5       C      0.250000000000     0.437460000000     0.062540000000     0          
C8       C      0.250000000000     0.331070000000     0.168930000000     0          
C1       C      0.608160000000     0.252500000000     0.017190000000     0          
H1       H      0.627900000000     0.253100000000     0.031900000000     0          
C4       C      0.572720000000     0.251430000000     0.027910000000     0          
C6       C      0.633710000000     0.219900000000     0.123510000000     0          
H2       H      0.646200000000     0.199400000000     0.129100000000     0          
C7       C      0.607830000000     0.219000000000     0.097270000000     0          
H3       H      0.602700000000     0.198400000000     0.085000000000     0          
O3       O      0.684860000000     0.222500000000     0.172120000000     0          
Co1      Co     0.500000000000     0.250000000000     0.000000000000     0          
O1       O      0.782620000000     0.217380000000     0.217380000000     0          
O2       O      0.696790000000     0.240680000000     0.240680000000     0          
Zr1      Zr     0.723790000000     0.213360000000     0.213360000000     0          
N1       N      0.550210000000     0.250600000000     0.000000000000     0          
C2       C      0.590370000000     0.250000000000     0.090370000000     0          
C3       C      0.640730000000     0.250000000000     0.140730000000     0          
C5       C      0.562540000000     0.250000000000     0.062540000000     0          
C8       C      0.668930000000     0.250000000000     0.168930000000     0          
C1       C      0.747500000000     0.608160000000     0.017190000000     0          
H1       H      0.746900000000     0.627900000000     0.031900000000     0          
C4       C      0.748570000000     0.572720000000     0.027910000000     0          
C6       C      0.780100000000     0.633710000000     0.123510000000     0          
H2       H      0.800600000000     0.646200000000     0.129100000000     0          
C7       C      0.781000000000     0.607830000000     0.097270000000     0          
H3       H      0.801600000000     0.602700000000     0.085000000000     0          
O3       O      0.777500000000     0.684860000000     0.172120000000     0          
Co1      Co     0.750000000000     0.500000000000     0.000000000000     0          
O1       O      0.782620000000     0.782620000000     0.217380000000     0          
O2       O      0.759320000000     0.696790000000     0.240680000000     0          
Zr1      Zr     0.786640000000     0.723790000000     0.213360000000     0          
N1       N      0.749400000000     0.550210000000     0.000000000000     0          
C2       C      0.750000000000     0.590370000000     0.090370000000     0          
C3       C      0.750000000000     0.640730000000     0.140730000000     0          
C5       C      0.750000000000     0.562540000000     0.062540000000     0          
C8       C      0.750000000000     0.668930000000     0.168930000000     0          
C1       C      0.391840000000     0.747500000000     0.017190000000     0          
H1       H      0.372100000000     0.746900000000     0.031900000000     0          
C4       C      0.427280000000     0.748570000000     0.027910000000     0          
C6       C      0.366290000000     0.780100000000     0.123510000000     0          
H2       H      0.353800000000     0.800600000000     0.129100000000     0          
C7       C      0.392170000000     0.781000000000     0.097270000000     0          
H3       H      0.397300000000     0.801600000000     0.085000000000     0          
O3       O      0.315140000000     0.777500000000     0.172120000000     0          
Co1      Co     0.500000000000     0.750000000000     0.000000000000     0          
O1       O      0.217380000000     0.782620000000     0.217380000000     0          
O2       O      0.303210000000     0.759320000000     0.240680000000     0          
Zr1      Zr     0.276210000000     0.786640000000     0.213360000000     0          
N1       N      0.449790000000     0.749400000000     0.000000000000     0          
C2       C      0.409630000000     0.750000000000     0.090370000000     0          
C3       C      0.359270000000     0.750000000000     0.140730000000     0          
C5       C      0.437460000000     0.750000000000     0.062540000000     0          
C8       C      0.331070000000     0.750000000000     0.168930000000     0          
C1       C      0.252500000000     0.608160000000     0.982810000000     0          
H1       H      0.253100000000     0.627900000000     0.968100000000     0          
C4       C      0.251430000000     0.572720000000     0.972090000000     0          
C6       C      0.219900000000     0.633710000000     0.876490000000     0          
H2       H      0.199400000000     0.646200000000     0.870900000000     0          
C7       C      0.219000000000     0.607830000000     0.902730000000     0          
H3       H      0.198400000000     0.602700000000     0.915000000000     0          
O3       O      0.222500000000     0.684860000000     0.827880000000     0          
O1       O      0.217380000000     0.782620000000     0.782620000000     0          
O2       O      0.240680000000     0.696790000000     0.759320000000     0          
Zr1      Zr     0.213360000000     0.723790000000     0.786640000000     0          
N1       N      0.250600000000     0.550210000000     0.000000000000     0          
C2       C      0.250000000000     0.590370000000     0.909630000000     0          
C3       C      0.250000000000     0.640730000000     0.859270000000     0          
C5       C      0.250000000000     0.562540000000     0.937460000000     0          
C8       C      0.250000000000     0.668930000000     0.831070000000     0          
C1       C      0.391840000000     0.252500000000     0.982810000000     0          
H1       H      0.372100000000     0.253100000000     0.968100000000     0          
C4       C      0.427280000000     0.251430000000     0.972090000000     0          
C6       C      0.366290000000     0.219900000000     0.876490000000     0          
H2       H      0.353800000000     0.199400000000     0.870900000000     0          
C7       C      0.392170000000     0.219000000000     0.902730000000     0          
H3       H      0.397300000000     0.198400000000     0.915000000000     0          
O3       O      0.315140000000     0.222500000000     0.827880000000     0          
O1       O      0.217380000000     0.217380000000     0.782620000000     0          
O2       O      0.303210000000     0.240680000000     0.759320000000     0          
Zr1      Zr     0.276210000000     0.213360000000     0.786640000000     0          
N1       N      0.449790000000     0.250600000000     0.000000000000     0          
C2       C      0.409630000000     0.250000000000     0.909630000000     0          
C3       C      0.359270000000     0.250000000000     0.859270000000     0          
C5       C      0.437460000000     0.250000000000     0.937460000000     0          
C8       C      0.331070000000     0.250000000000     0.831070000000     0          
C1       C      0.747500000000     0.391840000000     0.982810000000     0          
H1       H      0.746900000000     0.372100000000     0.968100000000     0          
C4       C      0.748570000000     0.427280000000     0.972090000000     0          
C6       C      0.780100000000     0.366290000000     0.876490000000     0          
H2       H      0.800600000000     0.353800000000     0.870900000000     0          
C7       C      0.781000000000     0.392170000000     0.902730000000     0          
H3       H      0.801600000000     0.397300000000     0.915000000000     0          
O3       O      0.777500000000     0.315140000000     0.827880000000     0          
O1       O      0.782620000000     0.217380000000     0.782620000000     0          
O2       O      0.759320000000     0.303210000000     0.759320000000     0          
Zr1      Zr     0.786640000000     0.276210000000     0.786640000000     0          
N1       N      0.749400000000     0.449790000000     0.000000000000     0          
C2       C      0.750000000000     0.409630000000     0.909630000000     0          
C3       C      0.750000000000     0.359270000000     0.859270000000     0          
C5       C      0.750000000000     0.437460000000     0.937460000000     0          
C8       C      0.750000000000     0.331070000000     0.831070000000     0          
C1       C      0.608160000000     0.747500000000     0.982810000000     0          
H1       H      0.627900000000     0.746900000000     0.968100000000     0          
C4       C      0.572720000000     0.748570000000     0.972090000000     0          
C6       C      0.633710000000     0.780100000000     0.876490000000     0          
H2       H      0.646200000000     0.800600000000     0.870900000000     0          
C7       C      0.607830000000     0.781000000000     0.902730000000     0          
H3       H      0.602700000000     0.801600000000     0.915000000000     0          
O3       O      0.684860000000     0.777500000000     0.827880000000     0          
O1       O      0.782620000000     0.782620000000     0.782620000000     0          
O2       O      0.696790000000     0.759320000000     0.759320000000     0          
Zr1      Zr     0.723790000000     0.786640000000     0.786640000000     0          
N1       N      0.550210000000     0.749400000000     0.000000000000     0          
C2       C      0.590370000000     0.750000000000     0.909630000000     0          
C3       C      0.640730000000     0.750000000000     0.859270000000     0          
C5       C      0.562540000000     0.750000000000     0.937460000000     0          
C8       C      0.668930000000     0.750000000000     0.831070000000     0          
C1       C      0.017190000000     0.252500000000     0.391840000000     0          
H1       H      0.031900000000     0.253100000000     0.372100000000     0          
C4       C      0.027910000000     0.251430000000     0.427280000000     0          
C6       C      0.123510000000     0.219900000000     0.366290000000     0          
H2       H      0.129100000000     0.199400000000     0.353800000000     0          
C7       C      0.097270000000     0.219000000000     0.392170000000     0          
H3       H      0.085000000000     0.198400000000     0.397300000000     0          
O3       O      0.172120000000     0.222500000000     0.315140000000     0          
Co1      Co     0.000000000000     0.250000000000     0.500000000000     0          
O2       O      0.240680000000     0.240680000000     0.303210000000     0          
Zr1      Zr     0.213360000000     0.213360000000     0.276210000000     0          
N1       N      0.000000000000     0.250600000000     0.449790000000     0          
C2       C      0.090370000000     0.250000000000     0.409630000000     0          
C3       C      0.140730000000     0.250000000000     0.359270000000     0          
C5       C      0.062540000000     0.250000000000     0.437460000000     0          
C8       C      0.168930000000     0.250000000000     0.331070000000     0          
C1       C      0.747500000000     0.017190000000     0.391840000000     0          
H1       H      0.746900000000     0.031900000000     0.372100000000     0          
C4       C      0.748570000000     0.027910000000     0.427280000000     0          
C6       C      0.780100000000     0.123510000000     0.366290000000     0          
H2       H      0.800600000000     0.129100000000     0.353800000000     0          
C7       C      0.781000000000     0.097270000000     0.392170000000     0          
H3       H      0.801600000000     0.085000000000     0.397300000000     0          
O3       O      0.777500000000     0.172120000000     0.315140000000     0          
Co1      Co     0.750000000000     0.000000000000     0.500000000000     0          
O2       O      0.759320000000     0.240680000000     0.303210000000     0          
Zr1      Zr     0.786640000000     0.213360000000     0.276210000000     0          
N1       N      0.749400000000     0.000000000000     0.449790000000     0          
C2       C      0.750000000000     0.090370000000     0.409630000000     0          
C3       C      0.750000000000     0.140730000000     0.359270000000     0          
C5       C      0.750000000000     0.062540000000     0.437460000000     0          
C8       C      0.750000000000     0.168930000000     0.331070000000     0          
C1       C      0.982810000000     0.747500000000     0.391840000000     0          
H1       H      0.968100000000     0.746900000000     0.372100000000     0          
C4       C      0.972090000000     0.748570000000     0.427280000000     0          
C6       C      0.876490000000     0.780100000000     0.366290000000     0          
H2       H      0.870900000000     0.800600000000     0.353800000000     0          
C7       C      0.902730000000     0.781000000000     0.392170000000     0          
H3       H      0.915000000000     0.801600000000     0.397300000000     0          
O3       O      0.827880000000     0.777500000000     0.315140000000     0          
Co1      Co     0.000000000000     0.750000000000     0.500000000000     0          
O2       O      0.759320000000     0.759320000000     0.303210000000     0          
Zr1      Zr     0.786640000000     0.786640000000     0.276210000000     0          
N1       N      0.000000000000     0.749400000000     0.449790000000     0          
C2       C      0.909630000000     0.750000000000     0.409630000000     0          
C3       C      0.859270000000     0.750000000000     0.359270000000     0          
C5       C      0.937460000000     0.750000000000     0.437460000000     0          
C8       C      0.831070000000     0.750000000000     0.331070000000     0          
C1       C      0.252500000000     0.982810000000     0.391840000000     0          
H1       H      0.253100000000     0.968100000000     0.372100000000     0          
C4       C      0.251430000000     0.972090000000     0.427280000000     0          
C6       C      0.219900000000     0.876490000000     0.366290000000     0          
H2       H      0.199400000000     0.870900000000     0.353800000000     0          
C7       C      0.219000000000     0.902730000000     0.392170000000     0          
H3       H      0.198400000000     0.915000000000     0.397300000000     0          
O3       O      0.222500000000     0.827880000000     0.315140000000     0          
Co1      Co     0.250000000000     0.000000000000     0.500000000000     0          
O2       O      0.240680000000     0.759320000000     0.303210000000     0          
Zr1      Zr     0.213360000000     0.786640000000     0.276210000000     0          
N1       N      0.250600000000     0.000000000000     0.449790000000     0          
C2       C      0.250000000000     0.909630000000     0.409630000000     0          
C3       C      0.250000000000     0.859270000000     0.359270000000     0          
C5       C      0.250000000000     0.937460000000     0.437460000000     0          
C8       C      0.250000000000     0.831070000000     0.331070000000     0          
C1       C      0.017190000000     0.747500000000     0.608160000000     0          
H1       H      0.031900000000     0.746900000000     0.627900000000     0          
C4       C      0.027910000000     0.748570000000     0.572720000000     0          
C6       C      0.123510000000     0.780100000000     0.633710000000     0          
H2       H      0.129100000000     0.800600000000     0.646200000000     0          
C7       C      0.097270000000     0.781000000000     0.607830000000     0          
H3       H      0.085000000000     0.801600000000     0.602700000000     0          
O3       O      0.172120000000     0.777500000000     0.684860000000     0          
O2       O      0.240680000000     0.759320000000     0.696790000000     0          
Zr1      Zr     0.213360000000     0.786640000000     0.723790000000     0          
N1       N      0.000000000000     0.749400000000     0.550210000000     0          
C2       C      0.090370000000     0.750000000000     0.590370000000     0          
C3       C      0.140730000000     0.750000000000     0.640730000000     0          
C5       C      0.062540000000     0.750000000000     0.562540000000     0          
C8       C      0.168930000000     0.750000000000     0.668930000000     0          
C1       C      0.252500000000     0.017190000000     0.608160000000     0          
H1       H      0.253100000000     0.031900000000     0.627900000000     0          
C4       C      0.251430000000     0.027910000000     0.572720000000     0          
C6       C      0.219900000000     0.123510000000     0.633710000000     0          
H2       H      0.199400000000     0.129100000000     0.646200000000     0          
C7       C      0.219000000000     0.097270000000     0.607830000000     0          
H3       H      0.198400000000     0.085000000000     0.602700000000     0          
O3       O      0.222500000000     0.172120000000     0.684860000000     0          
O2       O      0.240680000000     0.240680000000     0.696790000000     0          
Zr1      Zr     0.213360000000     0.213360000000     0.723790000000     0          
N1       N      0.250600000000     0.000000000000     0.550210000000     0          
C2       C      0.250000000000     0.090370000000     0.590370000000     0          
C3       C      0.250000000000     0.140730000000     0.640730000000     0          
C5       C      0.250000000000     0.062540000000     0.562540000000     0          
C8       C      0.250000000000     0.168930000000     0.668930000000     0          
C1       C      0.982810000000     0.252500000000     0.608160000000     0          
H1       H      0.968100000000     0.253100000000     0.627900000000     0          
C4       C      0.972090000000     0.251430000000     0.572720000000     0          
C6       C      0.876490000000     0.219900000000     0.633710000000     0          
H2       H      0.870900000000     0.199400000000     0.646200000000     0          
C7       C      0.902730000000     0.219000000000     0.607830000000     0          
H3       H      0.915000000000     0.198400000000     0.602700000000     0          
O3       O      0.827880000000     0.222500000000     0.684860000000     0          
O2       O      0.759320000000     0.240680000000     0.696790000000     0          
Zr1      Zr     0.786640000000     0.213360000000     0.723790000000     0          
N1       N      0.000000000000     0.250600000000     0.550210000000     0          
C2       C      0.909630000000     0.250000000000     0.590370000000     0          
C3       C      0.859270000000     0.250000000000     0.640730000000     0          
C5       C      0.937460000000     0.250000000000     0.562540000000     0          
C8       C      0.831070000000     0.250000000000     0.668930000000     0          
C1       C      0.747500000000     0.982810000000     0.608160000000     0          
H1       H      0.746900000000     0.968100000000     0.627900000000     0          
C4       C      0.748570000000     0.972090000000     0.572720000000     0          
C6       C      0.780100000000     0.876490000000     0.633710000000     0          
H2       H      0.800600000000     0.870900000000     0.646200000000     0          
C7       C      0.781000000000     0.902730000000     0.607830000000     0          
H3       H      0.801600000000     0.915000000000     0.602700000000     0          
O3       O      0.777500000000     0.827880000000     0.684860000000     0          
O2       O      0.759320000000     0.759320000000     0.696790000000     0          
Zr1      Zr     0.786640000000     0.786640000000     0.723790000000     0          
N1       N      0.749400000000     0.000000000000     0.550210000000     0          
C2       C      0.750000000000     0.909630000000     0.590370000000     0          
C3       C      0.750000000000     0.859270000000     0.640730000000     0          
C5       C      0.750000000000     0.937460000000     0.562540000000     0          
C8       C      0.750000000000     0.831070000000     0.668930000000     0          
C1       C      0.391840000000     0.017190000000     0.252500000000     0          
H1       H      0.372100000000     0.031900000000     0.253100000000     0          
C4       C      0.427280000000     0.027910000000     0.251430000000     0          
C6       C      0.366290000000     0.123510000000     0.219900000000     0          
H2       H      0.353800000000     0.129100000000     0.199400000000     0          
C7       C      0.392170000000     0.097270000000     0.219000000000     0          
H3       H      0.397300000000     0.085000000000     0.198400000000     0          
O3       O      0.315140000000     0.172120000000     0.222500000000     0          
Co1      Co     0.500000000000     0.000000000000     0.250000000000     0          
O2       O      0.303210000000     0.240680000000     0.240680000000     0          
Zr1      Zr     0.276210000000     0.213360000000     0.213360000000     0          
N1       N      0.449790000000     0.000000000000     0.250600000000     0          
C2       C      0.409630000000     0.090370000000     0.250000000000     0          
C3       C      0.359270000000     0.140730000000     0.250000000000     0          
C5       C      0.437460000000     0.062540000000     0.250000000000     0          
C8       C      0.331070000000     0.168930000000     0.250000000000     0          
C1       C      0.391840000000     0.982810000000     0.747500000000     0          
H1       H      0.372100000000     0.968100000000     0.746900000000     0          
C4       C      0.427280000000     0.972090000000     0.748570000000     0          
C6       C      0.366290000000     0.876490000000     0.780100000000     0          
H2       H      0.353800000000     0.870900000000     0.800600000000     0          
C7       C      0.392170000000     0.902730000000     0.781000000000     0          
H3       H      0.397300000000     0.915000000000     0.801600000000     0          
O3       O      0.315140000000     0.827880000000     0.777500000000     0          
Co1      Co     0.500000000000     0.000000000000     0.750000000000     0          
O2       O      0.303210000000     0.759320000000     0.759320000000     0          
Zr1      Zr     0.276210000000     0.786640000000     0.786640000000     0          
N1       N      0.449790000000     0.000000000000     0.749400000000     0          
C2       C      0.409630000000     0.909630000000     0.750000000000     0          
C3       C      0.359270000000     0.859270000000     0.750000000000     0          
C5       C      0.437460000000     0.937460000000     0.750000000000     0          
C8       C      0.331070000000     0.831070000000     0.750000000000     0          
C1       C      0.017190000000     0.391840000000     0.747500000000     0          
H1       H      0.031900000000     0.372100000000     0.746900000000     0          
C4       C      0.027910000000     0.427280000000     0.748570000000     0          
C6       C      0.123510000000     0.366290000000     0.780100000000     0          
H2       H      0.129100000000     0.353800000000     0.800600000000     0          
C7       C      0.097270000000     0.392170000000     0.781000000000     0          
H3       H      0.085000000000     0.397300000000     0.801600000000     0          
O3       O      0.172120000000     0.315140000000     0.777500000000     0          
Co1      Co     0.000000000000     0.500000000000     0.750000000000     0          
O2       O      0.240680000000     0.303210000000     0.759320000000     0          
Zr1      Zr     0.213360000000     0.276210000000     0.786640000000     0          
N1       N      0.000000000000     0.449790000000     0.749400000000     0          
C2       C      0.090370000000     0.409630000000     0.750000000000     0          
C3       C      0.140730000000     0.359270000000     0.750000000000     0          
C5       C      0.062540000000     0.437460000000     0.750000000000     0          
C8       C      0.168930000000     0.331070000000     0.750000000000     0          
C1       C      0.608160000000     0.017190000000     0.747500000000     0          
H1       H      0.627900000000     0.031900000000     0.746900000000     0          
C4       C      0.572720000000     0.027910000000     0.748570000000     0          
C6       C      0.633710000000     0.123510000000     0.780100000000     0          
H2       H      0.646200000000     0.129100000000     0.800600000000     0          
C7       C      0.607830000000     0.097270000000     0.781000000000     0          
H3       H      0.602700000000     0.085000000000     0.801600000000     0          
O3       O      0.684860000000     0.172120000000     0.777500000000     0          
O2       O      0.696790000000     0.240680000000     0.759320000000     0          
Zr1      Zr     0.723790000000     0.213360000000     0.786640000000     0          
N1       N      0.550210000000     0.000000000000     0.749400000000     0          
C2       C      0.590370000000     0.090370000000     0.750000000000     0          
C3       C      0.640730000000     0.140730000000     0.750000000000     0          
C5       C      0.562540000000     0.062540000000     0.750000000000     0          
C8       C      0.668930000000     0.168930000000     0.750000000000     0          
C1       C      0.982810000000     0.608160000000     0.747500000000     0          
H1       H      0.968100000000     0.627900000000     0.746900000000     0          
C4       C      0.972090000000     0.572720000000     0.748570000000     0          
C6       C      0.876490000000     0.633710000000     0.780100000000     0          
H2       H      0.870900000000     0.646200000000     0.800600000000     0          
C7       C      0.902730000000     0.607830000000     0.781000000000     0          
H3       H      0.915000000000     0.602700000000     0.801600000000     0          
O3       O      0.827880000000     0.684860000000     0.777500000000     0          
O2       O      0.759320000000     0.696790000000     0.759320000000     0          
Zr1      Zr     0.786640000000     0.723790000000     0.786640000000     0          
N1       N      0.000000000000     0.550210000000     0.749400000000     0          
C2       C      0.909630000000     0.590370000000     0.750000000000     0          
C3       C      0.859270000000     0.640730000000     0.750000000000     0          
C5       C      0.937460000000     0.562540000000     0.750000000000     0          
C8       C      0.831070000000     0.668930000000     0.750000000000     0          
C1       C      0.608160000000     0.982810000000     0.252500000000     0          
H1       H      0.627900000000     0.968100000000     0.253100000000     0          
C4       C      0.572720000000     0.972090000000     0.251430000000     0          
C6       C      0.633710000000     0.876490000000     0.219900000000     0          
H2       H      0.646200000000     0.870900000000     0.199400000000     0          
C7       C      0.607830000000     0.902730000000     0.219000000000     0          
H3       H      0.602700000000     0.915000000000     0.198400000000     0          
O3       O      0.684860000000     0.827880000000     0.222500000000     0          
O2       O      0.696790000000     0.759320000000     0.240680000000     0          
Zr1      Zr     0.723790000000     0.786640000000     0.213360000000     0          
N1       N      0.550210000000     0.000000000000     0.250600000000     0          
C2       C      0.590370000000     0.909630000000     0.250000000000     0          
C3       C      0.640730000000     0.859270000000     0.250000000000     0          
C5       C      0.562540000000     0.937460000000     0.250000000000     0          
C8       C      0.668930000000     0.831070000000     0.250000000000     0          
C1       C      0.017190000000     0.608160000000     0.252500000000     0          
H1       H      0.031900000000     0.627900000000     0.253100000000     0          
C4       C      0.027910000000     0.572720000000     0.251430000000     0          
C6       C      0.123510000000     0.633710000000     0.219900000000     0          
H2       H      0.129100000000     0.646200000000     0.199400000000     0          
C7       C      0.097270000000     0.607830000000     0.219000000000     0          
H3       H      0.085000000000     0.602700000000     0.198400000000     0          
O3       O      0.172120000000     0.684860000000     0.222500000000     0          
Co1      Co     0.000000000000     0.500000000000     0.250000000000     0          
O2       O      0.240680000000     0.696790000000     0.240680000000     0          
Zr1      Zr     0.213360000000     0.723790000000     0.213360000000     0          
N1       N      0.000000000000     0.550210000000     0.250600000000     0          
C2       C      0.090370000000     0.590370000000     0.250000000000     0          
C3       C      0.140730000000     0.640730000000     0.250000000000     0          
C5       C      0.062540000000     0.562540000000     0.250000000000     0          
C8       C      0.168930000000     0.668930000000     0.250000000000     0          
C1       C      0.982810000000     0.391840000000     0.252500000000     0          
H1       H      0.968100000000     0.372100000000     0.253100000000     0          
C4       C      0.972090000000     0.427280000000     0.251430000000     0          
C6       C      0.876490000000     0.366290000000     0.219900000000     0          
H2       H      0.870900000000     0.353800000000     0.199400000000     0          
C7       C      0.902730000000     0.392170000000     0.219000000000     0          
H3       H      0.915000000000     0.397300000000     0.198400000000     0          
O3       O      0.827880000000     0.315140000000     0.222500000000     0          
O2       O      0.759320000000     0.303210000000     0.240680000000     0          
Zr1      Zr     0.786640000000     0.276210000000     0.213360000000     0          
N1       N      0.000000000000     0.449790000000     0.250600000000     0          
C2       C      0.909630000000     0.409630000000     0.250000000000     0          
C3       C      0.859270000000     0.359270000000     0.250000000000     0          
C5       C      0.937460000000     0.437460000000     0.250000000000     0          
C8       C      0.831070000000     0.331070000000     0.250000000000     0          
C1       C      0.747500000000     0.608160000000     0.982810000000     0          
H1       H      0.746900000000     0.627900000000     0.968100000000     0          
C4       C      0.748570000000     0.572720000000     0.972090000000     0          
C6       C      0.780100000000     0.633710000000     0.876490000000     0          
H2       H      0.800600000000     0.646200000000     0.870900000000     0          
C7       C      0.781000000000     0.607830000000     0.902730000000     0          
H3       H      0.801600000000     0.602700000000     0.915000000000     0          
O3       O      0.777500000000     0.684860000000     0.827880000000     0          
C2       C      0.750000000000     0.590370000000     0.909630000000     0          
C3       C      0.750000000000     0.640730000000     0.859270000000     0          
C5       C      0.750000000000     0.562540000000     0.937460000000     0          
C8       C      0.750000000000     0.668930000000     0.831070000000     0          
C1       C      0.391840000000     0.747500000000     0.982810000000     0          
H1       H      0.372100000000     0.746900000000     0.968100000000     0          
C4       C      0.427280000000     0.748570000000     0.972090000000     0          
C6       C      0.366290000000     0.780100000000     0.876490000000     0          
H2       H      0.353800000000     0.800600000000     0.870900000000     0          
C7       C      0.392170000000     0.781000000000     0.902730000000     0          
H3       H      0.397300000000     0.801600000000     0.915000000000     0          
O3       O      0.315140000000     0.777500000000     0.827880000000     0          
C2       C      0.409630000000     0.750000000000     0.909630000000     0          
C3       C      0.359270000000     0.750000000000     0.859270000000     0          
C5       C      0.437460000000     0.750000000000     0.937460000000     0          
C8       C      0.331070000000     0.750000000000     0.831070000000     0          
C1       C      0.252500000000     0.391840000000     0.982810000000     0          
H1       H      0.253100000000     0.372100000000     0.968100000000     0          
C4       C      0.251430000000     0.427280000000     0.972090000000     0          
C6       C      0.219900000000     0.366290000000     0.876490000000     0          
H2       H      0.199400000000     0.353800000000     0.870900000000     0          
C7       C      0.219000000000     0.392170000000     0.902730000000     0          
H3       H      0.198400000000     0.397300000000     0.915000000000     0          
O3       O      0.222500000000     0.315140000000     0.827880000000     0          
C2       C      0.250000000000     0.409630000000     0.909630000000     0          
C3       C      0.250000000000     0.359270000000     0.859270000000     0          
C5       C      0.250000000000     0.437460000000     0.937460000000     0          
C8       C      0.250000000000     0.331070000000     0.831070000000     0          
C1       C      0.608160000000     0.252500000000     0.982810000000     0          
H1       H      0.627900000000     0.253100000000     0.968100000000     0          
C4       C      0.572720000000     0.251430000000     0.972090000000     0          
C6       C      0.633710000000     0.219900000000     0.876490000000     0          
H2       H      0.646200000000     0.199400000000     0.870900000000     0          
C7       C      0.607830000000     0.219000000000     0.902730000000     0          
H3       H      0.602700000000     0.198400000000     0.915000000000     0          
O3       O      0.684860000000     0.222500000000     0.827880000000     0          
C2       C      0.590370000000     0.250000000000     0.909630000000     0          
C3       C      0.640730000000     0.250000000000     0.859270000000     0          
C5       C      0.562540000000     0.250000000000     0.937460000000     0          
C8       C      0.668930000000     0.250000000000     0.831070000000     0          
C1       C      0.747500000000     0.391840000000     0.017190000000     0          
H1       H      0.746900000000     0.372100000000     0.031900000000     0          
C4       C      0.748570000000     0.427280000000     0.027910000000     0          
C6       C      0.780100000000     0.366290000000     0.123510000000     0          
H2       H      0.800600000000     0.353800000000     0.129100000000     0          
C7       C      0.781000000000     0.392170000000     0.097270000000     0          
H3       H      0.801600000000     0.397300000000     0.085000000000     0          
O3       O      0.777500000000     0.315140000000     0.172120000000     0          
C2       C      0.750000000000     0.409630000000     0.090370000000     0          
C3       C      0.750000000000     0.359270000000     0.140730000000     0          
C5       C      0.750000000000     0.437460000000     0.062540000000     0          
C8       C      0.750000000000     0.331070000000     0.168930000000     0          
C1       C      0.608160000000     0.747500000000     0.017190000000     0          
H1       H      0.627900000000     0.746900000000     0.031900000000     0          
C4       C      0.572720000000     0.748570000000     0.027910000000     0          
C6       C      0.633710000000     0.780100000000     0.123510000000     0          
H2       H      0.646200000000     0.800600000000     0.129100000000     0          
C7       C      0.607830000000     0.781000000000     0.097270000000     0          
H3       H      0.602700000000     0.801600000000     0.085000000000     0          
O3       O      0.684860000000     0.777500000000     0.172120000000     0          
C2       C      0.590370000000     0.750000000000     0.090370000000     0          
C3       C      0.640730000000     0.750000000000     0.140730000000     0          
C5       C      0.562540000000     0.750000000000     0.062540000000     0          
C8       C      0.668930000000     0.750000000000     0.168930000000     0          
C1       C      0.252500000000     0.608160000000     0.017190000000     0          
H1       H      0.253100000000     0.627900000000     0.031900000000     0          
C4       C      0.251430000000     0.572720000000     0.027910000000     0          
C6       C      0.219900000000     0.633710000000     0.123510000000     0          
H2       H      0.199400000000     0.646200000000     0.129100000000     0          
C7       C      0.219000000000     0.607830000000     0.097270000000     0          
H3       H      0.198400000000     0.602700000000     0.085000000000     0          
O3       O      0.222500000000     0.684860000000     0.172120000000     0          
C2       C      0.250000000000     0.590370000000     0.090370000000     0          
C3       C      0.250000000000     0.640730000000     0.140730000000     0          
C5       C      0.250000000000     0.562540000000     0.062540000000     0          
C8       C      0.250000000000     0.668930000000     0.168930000000     0          
C1       C      0.391840000000     0.252500000000     0.017190000000     0          
H1       H      0.372100000000     0.253100000000     0.031900000000     0          
C4       C      0.427280000000     0.251430000000     0.027910000000     0          
C6       C      0.366290000000     0.219900000000     0.123510000000     0          
H2       H      0.353800000000     0.199400000000     0.129100000000     0          
C7       C      0.392170000000     0.219000000000     0.097270000000     0          
H3       H      0.397300000000     0.198400000000     0.085000000000     0          
O3       O      0.315140000000     0.222500000000     0.172120000000     0          
C2       C      0.409630000000     0.250000000000     0.090370000000     0          
C3       C      0.359270000000     0.250000000000     0.140730000000     0          
C5       C      0.437460000000     0.250000000000     0.062540000000     0          
C8       C      0.331070000000     0.250000000000     0.168930000000     0          
C1       C      0.982810000000     0.747500000000     0.608160000000     0          
H1       H      0.968100000000     0.746900000000     0.627900000000     0          
C4       C      0.972090000000     0.748570000000     0.572720000000     0          
C6       C      0.876490000000     0.780100000000     0.633710000000     0          
H2       H      0.870900000000     0.800600000000     0.646200000000     0          
C7       C      0.902730000000     0.781000000000     0.607830000000     0          
H3       H      0.915000000000     0.801600000000     0.602700000000     0          
O3       O      0.827880000000     0.777500000000     0.684860000000     0          
C2       C      0.909630000000     0.750000000000     0.590370000000     0          
C3       C      0.859270000000     0.750000000000     0.640730000000     0          
C5       C      0.937460000000     0.750000000000     0.562540000000     0          
C8       C      0.831070000000     0.750000000000     0.668930000000     0          
C1       C      0.252500000000     0.982810000000     0.608160000000     0          
H1       H      0.253100000000     0.968100000000     0.627900000000     0          
C4       C      0.251430000000     0.972090000000     0.572720000000     0          
C6       C      0.219900000000     0.876490000000     0.633710000000     0          
H2       H      0.199400000000     0.870900000000     0.646200000000     0          
C7       C      0.219000000000     0.902730000000     0.607830000000     0          
H3       H      0.198400000000     0.915000000000     0.602700000000     0          
O3       O      0.222500000000     0.827880000000     0.684860000000     0          
C2       C      0.250000000000     0.909630000000     0.590370000000     0          
C3       C      0.250000000000     0.859270000000     0.640730000000     0          
C5       C      0.250000000000     0.937460000000     0.562540000000     0          
C8       C      0.250000000000     0.831070000000     0.668930000000     0          
C1       C      0.017190000000     0.252500000000     0.608160000000     0          
H1       H      0.031900000000     0.253100000000     0.627900000000     0          
C4       C      0.027910000000     0.251430000000     0.572720000000     0          
C6       C      0.123510000000     0.219900000000     0.633710000000     0          
H2       H      0.129100000000     0.199400000000     0.646200000000     0          
C7       C      0.097270000000     0.219000000000     0.607830000000     0          
H3       H      0.085000000000     0.198400000000     0.602700000000     0          
O3       O      0.172120000000     0.222500000000     0.684860000000     0          
C2       C      0.090370000000     0.250000000000     0.590370000000     0          
C3       C      0.140730000000     0.250000000000     0.640730000000     0          
C5       C      0.062540000000     0.250000000000     0.562540000000     0          
C8       C      0.168930000000     0.250000000000     0.668930000000     0          
C1       C      0.747500000000     0.017190000000     0.608160000000     0          
H1       H      0.746900000000     0.031900000000     0.627900000000     0          
C4       C      0.748570000000     0.027910000000     0.572720000000     0          
C6       C      0.780100000000     0.123510000000     0.633710000000     0          
H2       H      0.800600000000     0.129100000000     0.646200000000     0          
C7       C      0.781000000000     0.097270000000     0.607830000000     0          
H3       H      0.801600000000     0.085000000000     0.602700000000     0          
O3       O      0.777500000000     0.172120000000     0.684860000000     0          
C2       C      0.750000000000     0.090370000000     0.590370000000     0          
C3       C      0.750000000000     0.140730000000     0.640730000000     0          
C5       C      0.750000000000     0.062540000000     0.562540000000     0          
C8       C      0.750000000000     0.168930000000     0.668930000000     0          
C1       C      0.982810000000     0.252500000000     0.391840000000     0          
H1       H      0.968100000000     0.253100000000     0.372100000000     0          
C4       C      0.972090000000     0.251430000000     0.427280000000     0          
C6       C      0.876490000000     0.219900000000     0.366290000000     0          
H2       H      0.870900000000     0.199400000000     0.353800000000     0          
C7       C      0.902730000000     0.219000000000     0.392170000000     0          
H3       H      0.915000000000     0.198400000000     0.397300000000     0          
O3       O      0.827880000000     0.222500000000     0.315140000000     0          
C2       C      0.909630000000     0.250000000000     0.409630000000     0          
C3       C      0.859270000000     0.250000000000     0.359270000000     0          
C5       C      0.937460000000     0.250000000000     0.437460000000     0          
C8       C      0.831070000000     0.250000000000     0.331070000000     0          
C1       C      0.747500000000     0.982810000000     0.391840000000     0          
H1       H      0.746900000000     0.968100000000     0.372100000000     0          
C4       C      0.748570000000     0.972090000000     0.427280000000     0          
C6       C      0.780100000000     0.876490000000     0.366290000000     0          
H2       H      0.800600000000     0.870900000000     0.353800000000     0          
C7       C      0.781000000000     0.902730000000     0.392170000000     0          
H3       H      0.801600000000     0.915000000000     0.397300000000     0          
O3       O      0.777500000000     0.827880000000     0.315140000000     0          
C2       C      0.750000000000     0.909630000000     0.409630000000     0          
C3       C      0.750000000000     0.859270000000     0.359270000000     0          
C5       C      0.750000000000     0.937460000000     0.437460000000     0          
C8       C      0.750000000000     0.831070000000     0.331070000000     0          
C1       C      0.017190000000     0.747500000000     0.391840000000     0          
H1       H      0.031900000000     0.746900000000     0.372100000000     0          
C4       C      0.027910000000     0.748570000000     0.427280000000     0          
C6       C      0.123510000000     0.780100000000     0.366290000000     0          
H2       H      0.129100000000     0.800600000000     0.353800000000     0          
C7       C      0.097270000000     0.781000000000     0.392170000000     0          
H3       H      0.085000000000     0.801600000000     0.397300000000     0          
O3       O      0.172120000000     0.777500000000     0.315140000000     0          
C2       C      0.090370000000     0.750000000000     0.409630000000     0          
C3       C      0.140730000000     0.750000000000     0.359270000000     0          
C5       C      0.062540000000     0.750000000000     0.437460000000     0          
C8       C      0.168930000000     0.750000000000     0.331070000000     0          
C1       C      0.252500000000     0.017190000000     0.391840000000     0          
H1       H      0.253100000000     0.031900000000     0.372100000000     0          
C4       C      0.251430000000     0.027910000000     0.427280000000     0          
C6       C      0.219900000000     0.123510000000     0.366290000000     0          
H2       H      0.199400000000     0.129100000000     0.353800000000     0          
C7       C      0.219000000000     0.097270000000     0.392170000000     0          
H3       H      0.198400000000     0.085000000000     0.397300000000     0          
O3       O      0.222500000000     0.172120000000     0.315140000000     0          
C2       C      0.250000000000     0.090370000000     0.409630000000     0          
C3       C      0.250000000000     0.140730000000     0.359270000000     0          
C5       C      0.250000000000     0.062540000000     0.437460000000     0          
C8       C      0.250000000000     0.168930000000     0.331070000000     0          
C1       C      0.608160000000     0.982810000000     0.747500000000     0          
H1       H      0.627900000000     0.968100000000     0.746900000000     0          
C4       C      0.572720000000     0.972090000000     0.748570000000     0          
C6       C      0.633710000000     0.876490000000     0.780100000000     0          
H2       H      0.646200000000     0.870900000000     0.800600000000     0          
C7       C      0.607830000000     0.902730000000     0.781000000000     0          
H3       H      0.602700000000     0.915000000000     0.801600000000     0          
O3       O      0.684860000000     0.827880000000     0.777500000000     0          
C2       C      0.590370000000     0.909630000000     0.750000000000     0          
C3       C      0.640730000000     0.859270000000     0.750000000000     0          
C5       C      0.562540000000     0.937460000000     0.750000000000     0          
C8       C      0.668930000000     0.831070000000     0.750000000000     0          
C1       C      0.608160000000     0.017190000000     0.252500000000     0          
H1       H      0.627900000000     0.031900000000     0.253100000000     0          
C4       C      0.572720000000     0.027910000000     0.251430000000     0          
C6       C      0.633710000000     0.123510000000     0.219900000000     0          
H2       H      0.646200000000     0.129100000000     0.199400000000     0          
C7       C      0.607830000000     0.097270000000     0.219000000000     0          
H3       H      0.602700000000     0.085000000000     0.198400000000     0          
O3       O      0.684860000000     0.172120000000     0.222500000000     0          
C2       C      0.590370000000     0.090370000000     0.250000000000     0          
C3       C      0.640730000000     0.140730000000     0.250000000000     0          
C5       C      0.562540000000     0.062540000000     0.250000000000     0          
C8       C      0.668930000000     0.168930000000     0.250000000000     0          
C1       C      0.982810000000     0.608160000000     0.252500000000     0          
H1       H      0.968100000000     0.627900000000     0.253100000000     0          
C4       C      0.972090000000     0.572720000000     0.251430000000     0          
C6       C      0.876490000000     0.633710000000     0.219900000000     0          
H2       H      0.870900000000     0.646200000000     0.199400000000     0          
C7       C      0.902730000000     0.607830000000     0.219000000000     0          
H3       H      0.915000000000     0.602700000000     0.198400000000     0          
O3       O      0.827880000000     0.684860000000     0.222500000000     0          
C2       C      0.909630000000     0.590370000000     0.250000000000     0          
C3       C      0.859270000000     0.640730000000     0.250000000000     0          
C5       C      0.937460000000     0.562540000000     0.250000000000     0          
C8       C      0.831070000000     0.668930000000     0.250000000000     0          
C1       C      0.391840000000     0.982810000000     0.252500000000     0          
H1       H      0.372100000000     0.968100000000     0.253100000000     0          
C4       C      0.427280000000     0.972090000000     0.251430000000     0          
C6       C      0.366290000000     0.876490000000     0.219900000000     0          
H2       H      0.353800000000     0.870900000000     0.199400000000     0          
C7       C      0.392170000000     0.902730000000     0.219000000000     0          
H3       H      0.397300000000     0.915000000000     0.198400000000     0          
O3       O      0.315140000000     0.827880000000     0.222500000000     0          
C2       C      0.409630000000     0.909630000000     0.250000000000     0          
C3       C      0.359270000000     0.859270000000     0.250000000000     0          
C5       C      0.437460000000     0.937460000000     0.250000000000     0          
C8       C      0.331070000000     0.831070000000     0.250000000000     0          
C1       C      0.017190000000     0.391840000000     0.252500000000     0          
H1       H      0.031900000000     0.372100000000     0.253100000000     0          
C4       C      0.027910000000     0.427280000000     0.251430000000     0          
C6       C      0.123510000000     0.366290000000     0.219900000000     0          
H2       H      0.129100000000     0.353800000000     0.199400000000     0          
C7       C      0.097270000000     0.392170000000     0.219000000000     0          
H3       H      0.085000000000     0.397300000000     0.198400000000     0          
O3       O      0.172120000000     0.315140000000     0.222500000000     0          
C2       C      0.090370000000     0.409630000000     0.250000000000     0          
C3       C      0.140730000000     0.359270000000     0.250000000000     0          
C5       C      0.062540000000     0.437460000000     0.250000000000     0          
C8       C      0.168930000000     0.331070000000     0.250000000000     0          
C1       C      0.391840000000     0.017190000000     0.747500000000     0          
H1       H      0.372100000000     0.031900000000     0.746900000000     0          
C4       C      0.427280000000     0.027910000000     0.748570000000     0          
C6       C      0.366290000000     0.123510000000     0.780100000000     0          
H2       H      0.353800000000     0.129100000000     0.800600000000     0          
C7       C      0.392170000000     0.097270000000     0.781000000000     0          
H3       H      0.397300000000     0.085000000000     0.801600000000     0          
O3       O      0.315140000000     0.172120000000     0.777500000000     0          
C2       C      0.409630000000     0.090370000000     0.750000000000     0          
C3       C      0.359270000000     0.140730000000     0.750000000000     0          
C5       C      0.437460000000     0.062540000000     0.750000000000     0          
C8       C      0.331070000000     0.168930000000     0.750000000000     0          
C1       C      0.982810000000     0.391840000000     0.747500000000     0          
H1       H      0.968100000000     0.372100000000     0.746900000000     0          
C4       C      0.972090000000     0.427280000000     0.748570000000     0          
C6       C      0.876490000000     0.366290000000     0.780100000000     0          
H2       H      0.870900000000     0.353800000000     0.800600000000     0          
C7       C      0.902730000000     0.392170000000     0.781000000000     0          
H3       H      0.915000000000     0.397300000000     0.801600000000     0          
O3       O      0.827880000000     0.315140000000     0.777500000000     0          
C2       C      0.909630000000     0.409630000000     0.750000000000     0          
C3       C      0.859270000000     0.359270000000     0.750000000000     0          
C5       C      0.937460000000     0.437460000000     0.750000000000     0          
C8       C      0.831070000000     0.331070000000     0.750000000000     0          
C1       C      0.017190000000     0.608160000000     0.747500000000     0          
H1       H      0.031900000000     0.627900000000     0.746900000000     0          
C4       C      0.027910000000     0.572720000000     0.748570000000     0          
C6       C      0.123510000000     0.633710000000     0.780100000000     0          
H2       H      0.129100000000     0.646200000000     0.800600000000     0          
C7       C      0.097270000000     0.607830000000     0.781000000000     0          
H3       H      0.085000000000     0.602700000000     0.801600000000     0          
O3       O      0.172120000000     0.684860000000     0.777500000000     0          
C2       C      0.090370000000     0.590370000000     0.750000000000     0          
C3       C      0.140730000000     0.640730000000     0.750000000000     0          
C5       C      0.062540000000     0.562540000000     0.750000000000     0          
C8       C      0.168930000000     0.668930000000     0.750000000000     0          
C1       C      0.752500000000     0.891840000000     0.517190000000     0          
H1       H      0.753100000000     0.872100000000     0.531900000000     0          
C4       C      0.751430000000     0.927280000000     0.527910000000     0          
C6       C      0.719900000000     0.866290000000     0.623510000000     0          
H2       H      0.699400000000     0.853800000000     0.629100000000     0          
C7       C      0.719000000000     0.892170000000     0.597270000000     0          
H3       H      0.698400000000     0.897300000000     0.585000000000     0          
O3       O      0.722500000000     0.815140000000     0.672120000000     0          
O1       O      0.717380000000     0.717380000000     0.717380000000     0          
O2       O      0.740680000000     0.803210000000     0.740680000000     0          
Zr1      Zr     0.713360000000     0.776210000000     0.713360000000     0          
N1       N      0.750600000000     0.949790000000     0.500000000000     0          
C1       C      0.108160000000     0.752500000000     0.517190000000     0          
H1       H      0.127900000000     0.753100000000     0.531900000000     0          
C4       C      0.072720000000     0.751430000000     0.527910000000     0          
C6       C      0.133710000000     0.719900000000     0.623510000000     0          
H2       H      0.146200000000     0.699400000000     0.629100000000     0          
C7       C      0.107830000000     0.719000000000     0.597270000000     0          
H3       H      0.102700000000     0.698400000000     0.585000000000     0          
O3       O      0.184860000000     0.722500000000     0.672120000000     0          
O1       O      0.282620000000     0.717380000000     0.717380000000     0          
O2       O      0.196790000000     0.740680000000     0.740680000000     0          
Zr1      Zr     0.223790000000     0.713360000000     0.713360000000     0          
N1       N      0.050210000000     0.750600000000     0.500000000000     0          
C1       C      0.247500000000     0.108160000000     0.517190000000     0          
H1       H      0.246900000000     0.127900000000     0.531900000000     0          
C4       C      0.248570000000     0.072720000000     0.527910000000     0          
C6       C      0.280100000000     0.133710000000     0.623510000000     0          
H2       H      0.300600000000     0.146200000000     0.629100000000     0          
C7       C      0.281000000000     0.107830000000     0.597270000000     0          
H3       H      0.301600000000     0.102700000000     0.585000000000     0          
O3       O      0.277500000000     0.184860000000     0.672120000000     0          
O1       O      0.282620000000     0.282620000000     0.717380000000     0          
O2       O      0.259320000000     0.196790000000     0.740680000000     0          
Zr1      Zr     0.286640000000     0.223790000000     0.713360000000     0          
N1       N      0.249400000000     0.050210000000     0.500000000000     0          
C1       C      0.891840000000     0.247500000000     0.517190000000     0          
H1       H      0.872100000000     0.246900000000     0.531900000000     0          
C4       C      0.927280000000     0.248570000000     0.527910000000     0          
C6       C      0.866290000000     0.280100000000     0.623510000000     0          
H2       H      0.853800000000     0.300600000000     0.629100000000     0          
C7       C      0.892170000000     0.281000000000     0.597270000000     0          
H3       H      0.897300000000     0.301600000000     0.585000000000     0          
O3       O      0.815140000000     0.277500000000     0.672120000000     0          
O1       O      0.717380000000     0.282620000000     0.717380000000     0          
O2       O      0.803210000000     0.259320000000     0.740680000000     0          
Zr1      Zr     0.776210000000     0.286640000000     0.713360000000     0          
N1       N      0.949790000000     0.249400000000     0.500000000000     0          
C1       C      0.752500000000     0.108160000000     0.482810000000     0          
H1       H      0.753100000000     0.127900000000     0.468100000000     0          
C4       C      0.751430000000     0.072720000000     0.472090000000     0          
C6       C      0.719900000000     0.133710000000     0.376490000000     0          
H2       H      0.699400000000     0.146200000000     0.370900000000     0          
C7       C      0.719000000000     0.107830000000     0.402730000000     0          
H3       H      0.698400000000     0.102700000000     0.415000000000     0          
O3       O      0.722500000000     0.184860000000     0.327880000000     0          
O1       O      0.717380000000     0.282620000000     0.282620000000     0          
O2       O      0.740680000000     0.196790000000     0.259320000000     0          
Zr1      Zr     0.713360000000     0.223790000000     0.286640000000     0          
N1       N      0.750600000000     0.050210000000     0.500000000000     0          
C1       C      0.891840000000     0.752500000000     0.482810000000     0          
H1       H      0.872100000000     0.753100000000     0.468100000000     0          
C4       C      0.927280000000     0.751430000000     0.472090000000     0          
C6       C      0.866290000000     0.719900000000     0.376490000000     0          
H2       H      0.853800000000     0.699400000000     0.370900000000     0          
C7       C      0.892170000000     0.719000000000     0.402730000000     0          
H3       H      0.897300000000     0.698400000000     0.415000000000     0          
O3       O      0.815140000000     0.722500000000     0.327880000000     0          
O1       O      0.717380000000     0.717380000000     0.282620000000     0          
O2       O      0.803210000000     0.740680000000     0.259320000000     0          
Zr1      Zr     0.776210000000     0.713360000000     0.286640000000     0          
N1       N      0.949790000000     0.750600000000     0.500000000000     0          
C1       C      0.247500000000     0.891840000000     0.482810000000     0          
H1       H      0.246900000000     0.872100000000     0.468100000000     0          
C4       C      0.248570000000     0.927280000000     0.472090000000     0          
C6       C      0.280100000000     0.866290000000     0.376490000000     0          
H2       H      0.300600000000     0.853800000000     0.370900000000     0          
C7       C      0.281000000000     0.892170000000     0.402730000000     0          
H3       H      0.301600000000     0.897300000000     0.415000000000     0          
O3       O      0.277500000000     0.815140000000     0.327880000000     0          
O1       O      0.282620000000     0.717380000000     0.282620000000     0          
O2       O      0.259320000000     0.803210000000     0.259320000000     0          
Zr1      Zr     0.286640000000     0.776210000000     0.286640000000     0          
N1       N      0.249400000000     0.949790000000     0.500000000000     0          
C1       C      0.108160000000     0.247500000000     0.482810000000     0          
H1       H      0.127900000000     0.246900000000     0.468100000000     0          
C4       C      0.072720000000     0.248570000000     0.472090000000     0          
C6       C      0.133710000000     0.280100000000     0.376490000000     0          
H2       H      0.146200000000     0.300600000000     0.370900000000     0          
C7       C      0.107830000000     0.281000000000     0.402730000000     0          
H3       H      0.102700000000     0.301600000000     0.415000000000     0          
O3       O      0.184860000000     0.277500000000     0.327880000000     0          
O1       O      0.282620000000     0.282620000000     0.282620000000     0          
O2       O      0.196790000000     0.259320000000     0.259320000000     0          
Zr1      Zr     0.223790000000     0.286640000000     0.286640000000     0          
N1       N      0.050210000000     0.249400000000     0.500000000000     0          
C1       C      0.517190000000     0.752500000000     0.891840000000     0          
H1       H      0.531900000000     0.753100000000     0.872100000000     0          
C4       C      0.527910000000     0.751430000000     0.927280000000     0          
C6       C      0.623510000000     0.719900000000     0.866290000000     0          
H2       H      0.629100000000     0.699400000000     0.853800000000     0          
C7       C      0.597270000000     0.719000000000     0.892170000000     0          
H3       H      0.585000000000     0.698400000000     0.897300000000     0          
O3       O      0.672120000000     0.722500000000     0.815140000000     0          
O2       O      0.740680000000     0.740680000000     0.803210000000     0          
Zr1      Zr     0.713360000000     0.713360000000     0.776210000000     0          
N1       N      0.500000000000     0.750600000000     0.949790000000     0          
C1       C      0.247500000000     0.517190000000     0.891840000000     0          
H1       H      0.246900000000     0.531900000000     0.872100000000     0          
C4       C      0.248570000000     0.527910000000     0.927280000000     0          
C6       C      0.280100000000     0.623510000000     0.866290000000     0          
H2       H      0.300600000000     0.629100000000     0.853800000000     0          
C7       C      0.281000000000     0.597270000000     0.892170000000     0          
H3       H      0.301600000000     0.585000000000     0.897300000000     0          
O3       O      0.277500000000     0.672120000000     0.815140000000     0          
O2       O      0.259320000000     0.740680000000     0.803210000000     0          
Zr1      Zr     0.286640000000     0.713360000000     0.776210000000     0          
N1       N      0.249400000000     0.500000000000     0.949790000000     0          
C1       C      0.482810000000     0.247500000000     0.891840000000     0          
H1       H      0.468100000000     0.246900000000     0.872100000000     0          
C4       C      0.472090000000     0.248570000000     0.927280000000     0          
C6       C      0.376490000000     0.280100000000     0.866290000000     0          
H2       H      0.370900000000     0.300600000000     0.853800000000     0          
C7       C      0.402730000000     0.281000000000     0.892170000000     0          
H3       H      0.415000000000     0.301600000000     0.897300000000     0          
O3       O      0.327880000000     0.277500000000     0.815140000000     0          
O2       O      0.259320000000     0.259320000000     0.803210000000     0          
Zr1      Zr     0.286640000000     0.286640000000     0.776210000000     0          
N1       N      0.500000000000     0.249400000000     0.949790000000     0          
C1       C      0.752500000000     0.482810000000     0.891840000000     0          
H1       H      0.753100000000     0.468100000000     0.872100000000     0          
C4       C      0.751430000000     0.472090000000     0.927280000000     0          
C6       C      0.719900000000     0.376490000000     0.866290000000     0          
H2       H      0.699400000000     0.370900000000     0.853800000000     0          
C7       C      0.719000000000     0.402730000000     0.892170000000     0          
H3       H      0.698400000000     0.415000000000     0.897300000000     0          
O3       O      0.722500000000     0.327880000000     0.815140000000     0          
O2       O      0.740680000000     0.259320000000     0.803210000000     0          
Zr1      Zr     0.713360000000     0.286640000000     0.776210000000     0          
N1       N      0.750600000000     0.500000000000     0.949790000000     0          
C1       C      0.517190000000     0.247500000000     0.108160000000     0          
H1       H      0.531900000000     0.246900000000     0.127900000000     0          
C4       C      0.527910000000     0.248570000000     0.072720000000     0          
C6       C      0.623510000000     0.280100000000     0.133710000000     0          
H2       H      0.629100000000     0.300600000000     0.146200000000     0          
C7       C      0.597270000000     0.281000000000     0.107830000000     0          
H3       H      0.585000000000     0.301600000000     0.102700000000     0          
O3       O      0.672120000000     0.277500000000     0.184860000000     0          
O2       O      0.740680000000     0.259320000000     0.196790000000     0          
Zr1      Zr     0.713360000000     0.286640000000     0.223790000000     0          
N1       N      0.500000000000     0.249400000000     0.050210000000     0          
C1       C      0.752500000000     0.517190000000     0.108160000000     0          
H1       H      0.753100000000     0.531900000000     0.127900000000     0          
C4       C      0.751430000000     0.527910000000     0.072720000000     0          
C6       C      0.719900000000     0.623510000000     0.133710000000     0          
H2       H      0.699400000000     0.629100000000     0.146200000000     0          
C7       C      0.719000000000     0.597270000000     0.107830000000     0          
H3       H      0.698400000000     0.585000000000     0.102700000000     0          
O3       O      0.722500000000     0.672120000000     0.184860000000     0          
O2       O      0.740680000000     0.740680000000     0.196790000000     0          
Zr1      Zr     0.713360000000     0.713360000000     0.223790000000     0          
N1       N      0.750600000000     0.500000000000     0.050210000000     0          
C1       C      0.482810000000     0.752500000000     0.108160000000     0          
H1       H      0.468100000000     0.753100000000     0.127900000000     0          
C4       C      0.472090000000     0.751430000000     0.072720000000     0          
C6       C      0.376490000000     0.719900000000     0.133710000000     0          
H2       H      0.370900000000     0.699400000000     0.146200000000     0          
C7       C      0.402730000000     0.719000000000     0.107830000000     0          
H3       H      0.415000000000     0.698400000000     0.102700000000     0          
O3       O      0.327880000000     0.722500000000     0.184860000000     0          
O2       O      0.259320000000     0.740680000000     0.196790000000     0          
Zr1      Zr     0.286640000000     0.713360000000     0.223790000000     0          
N1       N      0.500000000000     0.750600000000     0.050210000000     0          
C1       C      0.247500000000     0.482810000000     0.108160000000     0          
H1       H      0.246900000000     0.468100000000     0.127900000000     0          
C4       C      0.248570000000     0.472090000000     0.072720000000     0          
C6       C      0.280100000000     0.376490000000     0.133710000000     0          
H2       H      0.300600000000     0.370900000000     0.146200000000     0          
C7       C      0.281000000000     0.402730000000     0.107830000000     0          
H3       H      0.301600000000     0.415000000000     0.102700000000     0          
O3       O      0.277500000000     0.327880000000     0.184860000000     0          
O2       O      0.259320000000     0.259320000000     0.196790000000     0          
Zr1      Zr     0.286640000000     0.286640000000     0.223790000000     0          
N1       N      0.249400000000     0.500000000000     0.050210000000     0          
C1       C      0.891840000000     0.517190000000     0.752500000000     0          
H1       H      0.872100000000     0.531900000000     0.753100000000     0          
C4       C      0.927280000000     0.527910000000     0.751430000000     0          
C6       C      0.866290000000     0.623510000000     0.719900000000     0          
H2       H      0.853800000000     0.629100000000     0.699400000000     0          
C7       C      0.892170000000     0.597270000000     0.719000000000     0          
H3       H      0.897300000000     0.585000000000     0.698400000000     0          
O3       O      0.815140000000     0.672120000000     0.722500000000     0          
O2       O      0.803210000000     0.740680000000     0.740680000000     0          
Zr1      Zr     0.776210000000     0.713360000000     0.713360000000     0          
N1       N      0.949790000000     0.500000000000     0.750600000000     0          
C1       C      0.891840000000     0.482810000000     0.247500000000     0          
H1       H      0.872100000000     0.468100000000     0.246900000000     0          
C4       C      0.927280000000     0.472090000000     0.248570000000     0          
C6       C      0.866290000000     0.376490000000     0.280100000000     0          
H2       H      0.853800000000     0.370900000000     0.300600000000     0          
C7       C      0.892170000000     0.402730000000     0.281000000000     0          
H3       H      0.897300000000     0.415000000000     0.301600000000     0          
O3       O      0.815140000000     0.327880000000     0.277500000000     0          
O2       O      0.803210000000     0.259320000000     0.259320000000     0          
Zr1      Zr     0.776210000000     0.286640000000     0.286640000000     0          
N1       N      0.949790000000     0.500000000000     0.249400000000     0          
C1       C      0.517190000000     0.891840000000     0.247500000000     0          
H1       H      0.531900000000     0.872100000000     0.246900000000     0          
C4       C      0.527910000000     0.927280000000     0.248570000000     0          
C6       C      0.623510000000     0.866290000000     0.280100000000     0          
H2       H      0.629100000000     0.853800000000     0.300600000000     0          
C7       C      0.597270000000     0.892170000000     0.281000000000     0          
H3       H      0.585000000000     0.897300000000     0.301600000000     0          
O3       O      0.672120000000     0.815140000000     0.277500000000     0          
O2       O      0.740680000000     0.803210000000     0.259320000000     0          
Zr1      Zr     0.713360000000     0.776210000000     0.286640000000     0          
N1       N      0.500000000000     0.949790000000     0.249400000000     0          
C1       C      0.108160000000     0.517190000000     0.247500000000     0          
H1       H      0.127900000000     0.531900000000     0.246900000000     0          
C4       C      0.072720000000     0.527910000000     0.248570000000     0          
C6       C      0.133710000000     0.623510000000     0.280100000000     0          
H2       H      0.146200000000     0.629100000000     0.300600000000     0          
C7       C      0.107830000000     0.597270000000     0.281000000000     0          
H3       H      0.102700000000     0.585000000000     0.301600000000     0          
O3       O      0.184860000000     0.672120000000     0.277500000000     0          
O2       O      0.196790000000     0.740680000000     0.259320000000     0          
Zr1      Zr     0.223790000000     0.713360000000     0.286640000000     0          
N1       N      0.050210000000     0.500000000000     0.249400000000     0          
C1       C      0.482810000000     0.108160000000     0.247500000000     0          
H1       H      0.468100000000     0.127900000000     0.246900000000     0          
C4       C      0.472090000000     0.072720000000     0.248570000000     0          
C6       C      0.376490000000     0.133710000000     0.280100000000     0          
H2       H      0.370900000000     0.146200000000     0.300600000000     0          
C7       C      0.402730000000     0.107830000000     0.281000000000     0          
H3       H      0.415000000000     0.102700000000     0.301600000000     0          
O3       O      0.327880000000     0.184860000000     0.277500000000     0          
O2       O      0.259320000000     0.196790000000     0.259320000000     0          
Zr1      Zr     0.286640000000     0.223790000000     0.286640000000     0          
N1       N      0.500000000000     0.050210000000     0.249400000000     0          
C1       C      0.108160000000     0.482810000000     0.752500000000     0          
H1       H      0.127900000000     0.468100000000     0.753100000000     0          
C4       C      0.072720000000     0.472090000000     0.751430000000     0          
C6       C      0.133710000000     0.376490000000     0.719900000000     0          
H2       H      0.146200000000     0.370900000000     0.699400000000     0          
C7       C      0.107830000000     0.402730000000     0.719000000000     0          
H3       H      0.102700000000     0.415000000000     0.698400000000     0          
O3       O      0.184860000000     0.327880000000     0.722500000000     0          
O2       O      0.196790000000     0.259320000000     0.740680000000     0          
Zr1      Zr     0.223790000000     0.286640000000     0.713360000000     0          
N1       N      0.050210000000     0.500000000000     0.750600000000     0          
C1       C      0.517190000000     0.108160000000     0.752500000000     0          
H1       H      0.531900000000     0.127900000000     0.753100000000     0          
C4       C      0.527910000000     0.072720000000     0.751430000000     0          
C6       C      0.623510000000     0.133710000000     0.719900000000     0          
H2       H      0.629100000000     0.146200000000     0.699400000000     0          
C7       C      0.597270000000     0.107830000000     0.719000000000     0          
H3       H      0.585000000000     0.102700000000     0.698400000000     0          
O3       O      0.672120000000     0.184860000000     0.722500000000     0          
O2       O      0.740680000000     0.196790000000     0.740680000000     0          
Zr1      Zr     0.713360000000     0.223790000000     0.713360000000     0          
N1       N      0.500000000000     0.050210000000     0.750600000000     0          
C1       C      0.482810000000     0.891840000000     0.752500000000     0          
H1       H      0.468100000000     0.872100000000     0.753100000000     0          
C4       C      0.472090000000     0.927280000000     0.751430000000     0          
C6       C      0.376490000000     0.866290000000     0.719900000000     0          
H2       H      0.370900000000     0.853800000000     0.699400000000     0          
C7       C      0.402730000000     0.892170000000     0.719000000000     0          
H3       H      0.415000000000     0.897300000000     0.698400000000     0          
O3       O      0.327880000000     0.815140000000     0.722500000000     0          
O2       O      0.259320000000     0.803210000000     0.740680000000     0          
Zr1      Zr     0.286640000000     0.776210000000     0.713360000000     0          
N1       N      0.500000000000     0.949790000000     0.750600000000     0          
C1       C      0.247500000000     0.108160000000     0.482810000000     0          
H1       H      0.246900000000     0.127900000000     0.468100000000     0          
C4       C      0.248570000000     0.072720000000     0.472090000000     0          
C6       C      0.280100000000     0.133710000000     0.376490000000     0          
H2       H      0.300600000000     0.146200000000     0.370900000000     0          
C7       C      0.281000000000     0.107830000000     0.402730000000     0          
H3       H      0.301600000000     0.102700000000     0.415000000000     0          
O3       O      0.277500000000     0.184860000000     0.327880000000     0          
C1       C      0.891840000000     0.247500000000     0.482810000000     0          
H1       H      0.872100000000     0.246900000000     0.468100000000     0          
C4       C      0.927280000000     0.248570000000     0.472090000000     0          
C6       C      0.866290000000     0.280100000000     0.376490000000     0          
H2       H      0.853800000000     0.300600000000     0.370900000000     0          
C7       C      0.892170000000     0.281000000000     0.402730000000     0          
H3       H      0.897300000000     0.301600000000     0.415000000000     0          
O3       O      0.815140000000     0.277500000000     0.327880000000     0          
C1       C      0.752500000000     0.891840000000     0.482810000000     0          
H1       H      0.753100000000     0.872100000000     0.468100000000     0          
C4       C      0.751430000000     0.927280000000     0.472090000000     0          
C6       C      0.719900000000     0.866290000000     0.376490000000     0          
H2       H      0.699400000000     0.853800000000     0.370900000000     0          
C7       C      0.719000000000     0.892170000000     0.402730000000     0          
H3       H      0.698400000000     0.897300000000     0.415000000000     0          
O3       O      0.722500000000     0.815140000000     0.327880000000     0          
C1       C      0.108160000000     0.752500000000     0.482810000000     0          
H1       H      0.127900000000     0.753100000000     0.468100000000     0          
C4       C      0.072720000000     0.751430000000     0.472090000000     0          
C6       C      0.133710000000     0.719900000000     0.376490000000     0          
H2       H      0.146200000000     0.699400000000     0.370900000000     0          
C7       C      0.107830000000     0.719000000000     0.402730000000     0          
H3       H      0.102700000000     0.698400000000     0.415000000000     0          
O3       O      0.184860000000     0.722500000000     0.327880000000     0          
C1       C      0.247500000000     0.891840000000     0.517190000000     0          
H1       H      0.246900000000     0.872100000000     0.531900000000     0          
C4       C      0.248570000000     0.927280000000     0.527910000000     0          
C6       C      0.280100000000     0.866290000000     0.623510000000     0          
H2       H      0.300600000000     0.853800000000     0.629100000000     0          
C7       C      0.281000000000     0.892170000000     0.597270000000     0          
H3       H      0.301600000000     0.897300000000     0.585000000000     0          
O3       O      0.277500000000     0.815140000000     0.672120000000     0          
C1       C      0.108160000000     0.247500000000     0.517190000000     0          
H1       H      0.127900000000     0.246900000000     0.531900000000     0          
C4       C      0.072720000000     0.248570000000     0.527910000000     0          
C6       C      0.133710000000     0.280100000000     0.623510000000     0          
H2       H      0.146200000000     0.300600000000     0.629100000000     0          
C7       C      0.107830000000     0.281000000000     0.597270000000     0          
H3       H      0.102700000000     0.301600000000     0.585000000000     0          
O3       O      0.184860000000     0.277500000000     0.672120000000     0          
C1       C      0.752500000000     0.108160000000     0.517190000000     0          
H1       H      0.753100000000     0.127900000000     0.531900000000     0          
C4       C      0.751430000000     0.072720000000     0.527910000000     0          
C6       C      0.719900000000     0.133710000000     0.623510000000     0          
H2       H      0.699400000000     0.146200000000     0.629100000000     0          
C7       C      0.719000000000     0.107830000000     0.597270000000     0          
H3       H      0.698400000000     0.102700000000     0.585000000000     0          
O3       O      0.722500000000     0.184860000000     0.672120000000     0          
C1       C      0.891840000000     0.752500000000     0.517190000000     0          
H1       H      0.872100000000     0.753100000000     0.531900000000     0          
C4       C      0.927280000000     0.751430000000     0.527910000000     0          
C6       C      0.866290000000     0.719900000000     0.623510000000     0          
H2       H      0.853800000000     0.699400000000     0.629100000000     0          
C7       C      0.892170000000     0.719000000000     0.597270000000     0          
H3       H      0.897300000000     0.698400000000     0.585000000000     0          
O3       O      0.815140000000     0.722500000000     0.672120000000     0          
C1       C      0.482810000000     0.247500000000     0.108160000000     0          
H1       H      0.468100000000     0.246900000000     0.127900000000     0          
C4       C      0.472090000000     0.248570000000     0.072720000000     0          
C6       C      0.376490000000     0.280100000000     0.133710000000     0          
H2       H      0.370900000000     0.300600000000     0.146200000000     0          
C7       C      0.402730000000     0.281000000000     0.107830000000     0          
H3       H      0.415000000000     0.301600000000     0.102700000000     0          
O3       O      0.327880000000     0.277500000000     0.184860000000     0          
C1       C      0.752500000000     0.482810000000     0.108160000000     0          
H1       H      0.753100000000     0.468100000000     0.127900000000     0          
C4       C      0.751430000000     0.472090000000     0.072720000000     0          
C6       C      0.719900000000     0.376490000000     0.133710000000     0          
H2       H      0.699400000000     0.370900000000     0.146200000000     0          
C7       C      0.719000000000     0.402730000000     0.107830000000     0          
H3       H      0.698400000000     0.415000000000     0.102700000000     0          
O3       O      0.722500000000     0.327880000000     0.184860000000     0          
C1       C      0.517190000000     0.752500000000     0.108160000000     0          
H1       H      0.531900000000     0.753100000000     0.127900000000     0          
C4       C      0.527910000000     0.751430000000     0.072720000000     0          
C6       C      0.623510000000     0.719900000000     0.133710000000     0          
H2       H      0.629100000000     0.699400000000     0.146200000000     0          
C7       C      0.597270000000     0.719000000000     0.107830000000     0          
H3       H      0.585000000000     0.698400000000     0.102700000000     0          
O3       O      0.672120000000     0.722500000000     0.184860000000     0          
C1       C      0.247500000000     0.517190000000     0.108160000000     0          
H1       H      0.246900000000     0.531900000000     0.127900000000     0          
C4       C      0.248570000000     0.527910000000     0.072720000000     0          
C6       C      0.280100000000     0.623510000000     0.133710000000     0          
H2       H      0.300600000000     0.629100000000     0.146200000000     0          
C7       C      0.281000000000     0.597270000000     0.107830000000     0          
H3       H      0.301600000000     0.585000000000     0.102700000000     0          
O3       O      0.277500000000     0.672120000000     0.184860000000     0          
C1       C      0.482810000000     0.752500000000     0.891840000000     0          
H1       H      0.468100000000     0.753100000000     0.872100000000     0          
C4       C      0.472090000000     0.751430000000     0.927280000000     0          
C6       C      0.376490000000     0.719900000000     0.866290000000     0          
H2       H      0.370900000000     0.699400000000     0.853800000000     0          
C7       C      0.402730000000     0.719000000000     0.892170000000     0          
H3       H      0.415000000000     0.698400000000     0.897300000000     0          
O3       O      0.327880000000     0.722500000000     0.815140000000     0          
C1       C      0.247500000000     0.482810000000     0.891840000000     0          
H1       H      0.246900000000     0.468100000000     0.872100000000     0          
C4       C      0.248570000000     0.472090000000     0.927280000000     0          
C6       C      0.280100000000     0.376490000000     0.866290000000     0          
H2       H      0.300600000000     0.370900000000     0.853800000000     0          
C7       C      0.281000000000     0.402730000000     0.892170000000     0          
H3       H      0.301600000000     0.415000000000     0.897300000000     0          
O3       O      0.277500000000     0.327880000000     0.815140000000     0          
C1       C      0.517190000000     0.247500000000     0.891840000000     0          
H1       H      0.531900000000     0.246900000000     0.872100000000     0          
C4       C      0.527910000000     0.248570000000     0.927280000000     0          
C6       C      0.623510000000     0.280100000000     0.866290000000     0          
H2       H      0.629100000000     0.300600000000     0.853800000000     0          
C7       C      0.597270000000     0.281000000000     0.892170000000     0          
H3       H      0.585000000000     0.301600000000     0.897300000000     0          
O3       O      0.672120000000     0.277500000000     0.815140000000     0          
C1       C      0.752500000000     0.517190000000     0.891840000000     0          
H1       H      0.753100000000     0.531900000000     0.872100000000     0          
C4       C      0.751430000000     0.527910000000     0.927280000000     0          
C6       C      0.719900000000     0.623510000000     0.866290000000     0          
H2       H      0.699400000000     0.629100000000     0.853800000000     0          
C7       C      0.719000000000     0.597270000000     0.892170000000     0          
H3       H      0.698400000000     0.585000000000     0.897300000000     0          
O3       O      0.722500000000     0.672120000000     0.815140000000     0          
C1       C      0.108160000000     0.482810000000     0.247500000000     0          
H1       H      0.127900000000     0.468100000000     0.246900000000     0          
C4       C      0.072720000000     0.472090000000     0.248570000000     0          
C6       C      0.133710000000     0.376490000000     0.280100000000     0          
H2       H      0.146200000000     0.370900000000     0.300600000000     0          
C7       C      0.107830000000     0.402730000000     0.281000000000     0          
H3       H      0.102700000000     0.415000000000     0.301600000000     0          
O3       O      0.184860000000     0.327880000000     0.277500000000     0          
C1       C      0.108160000000     0.517190000000     0.752500000000     0          
H1       H      0.127900000000     0.531900000000     0.753100000000     0          
C4       C      0.072720000000     0.527910000000     0.751430000000     0          
C6       C      0.133710000000     0.623510000000     0.719900000000     0          
H2       H      0.146200000000     0.629100000000     0.699400000000     0          
C7       C      0.107830000000     0.597270000000     0.719000000000     0          
H3       H      0.102700000000     0.585000000000     0.698400000000     0          
O3       O      0.184860000000     0.672120000000     0.722500000000     0          
C1       C      0.482810000000     0.108160000000     0.752500000000     0          
H1       H      0.468100000000     0.127900000000     0.753100000000     0          
C4       C      0.472090000000     0.072720000000     0.751430000000     0          
C6       C      0.376490000000     0.133710000000     0.719900000000     0          
H2       H      0.370900000000     0.146200000000     0.699400000000     0          
C7       C      0.402730000000     0.107830000000     0.719000000000     0          
H3       H      0.415000000000     0.102700000000     0.698400000000     0          
O3       O      0.327880000000     0.184860000000     0.722500000000     0          
C1       C      0.891840000000     0.482810000000     0.752500000000     0          
H1       H      0.872100000000     0.468100000000     0.753100000000     0          
C4       C      0.927280000000     0.472090000000     0.751430000000     0          
C6       C      0.866290000000     0.376490000000     0.719900000000     0          
H2       H      0.853800000000     0.370900000000     0.699400000000     0          
C7       C      0.892170000000     0.402730000000     0.719000000000     0          
H3       H      0.897300000000     0.415000000000     0.698400000000     0          
O3       O      0.815140000000     0.327880000000     0.722500000000     0          
C1       C      0.517190000000     0.891840000000     0.752500000000     0          
H1       H      0.531900000000     0.872100000000     0.753100000000     0          
C4       C      0.527910000000     0.927280000000     0.751430000000     0          
C6       C      0.623510000000     0.866290000000     0.719900000000     0          
H2       H      0.629100000000     0.853800000000     0.699400000000     0          
C7       C      0.597270000000     0.892170000000     0.719000000000     0          
H3       H      0.585000000000     0.897300000000     0.698400000000     0          
O3       O      0.672120000000     0.815140000000     0.722500000000     0          
C1       C      0.891840000000     0.517190000000     0.247500000000     0          
H1       H      0.872100000000     0.531900000000     0.246900000000     0          
C4       C      0.927280000000     0.527910000000     0.248570000000     0          
C6       C      0.866290000000     0.623510000000     0.280100000000     0          
H2       H      0.853800000000     0.629100000000     0.300600000000     0          
C7       C      0.892170000000     0.597270000000     0.281000000000     0          
H3       H      0.897300000000     0.585000000000     0.301600000000     0          
O3       O      0.815140000000     0.672120000000     0.277500000000     0          
C1       C      0.482810000000     0.891840000000     0.247500000000     0          
H1       H      0.468100000000     0.872100000000     0.246900000000     0          
C4       C      0.472090000000     0.927280000000     0.248570000000     0          
C6       C      0.376490000000     0.866290000000     0.280100000000     0          
H2       H      0.370900000000     0.853800000000     0.300600000000     0          
C7       C      0.402730000000     0.892170000000     0.281000000000     0          
H3       H      0.415000000000     0.897300000000     0.301600000000     0          
O3       O      0.327880000000     0.815140000000     0.277500000000     0          
C1       C      0.517190000000     0.108160000000     0.247500000000     0          
H1       H      0.531900000000     0.127900000000     0.246900000000     0          
C4       C      0.527910000000     0.072720000000     0.248570000000     0          
C6       C      0.623510000000     0.133710000000     0.280100000000     0          
H2       H      0.629100000000     0.146200000000     0.300600000000     0          
C7       C      0.597270000000     0.107830000000     0.281000000000     0          
H3       H      0.585000000000     0.102700000000     0.301600000000     0          
O3       O      0.672120000000     0.184860000000     0.277500000000     0          


