data_NIHGAP

_audit_creation_method RASPA-1.0
_audit_creation_date 2020-11-2
_audit_author_name 'Rocio Bueno-Perez'

_cell_length_a    18.569
_cell_length_b    34.591
_cell_length_c    32.2034
_cell_angle_alpha 90
_cell_angle_beta  90
_cell_angle_gamma 90
_cell_volume      20684.9

_symmetry_cell_setting          orthorhombic
_symmetry_space_group_name_Hall 'P 1'
_symmetry_space_group_name_H-M  'P 1'
_symmetry_Int_Tables_number     1

_symmetry_equiv_pos_as_xyz 'x,y,z'

loop_
_atom_site_label
_atom_site_type_symbol
_atom_site_fract_x
_atom_site_fract_y
_atom_site_fract_z
_atom_site_charge
O1       O      0.570600000000     0.602440000000     0.323340000000     0          
O2       O      0.928200000000     0.896580000000     0.259150000000     0          
O3       O      0.635500000000     0.559470000000     0.360090000000     0          
O5       O      0.867400000000     0.941860000000     0.295210000000     0          
O6       O      0.594600000000     0.534100000000     0.282870000000     0          
C1       C      0.616500000000     0.593580000000     0.350480000000     0          
C2       C      0.654500000000     0.626540000000     0.371130000000     0          
C3       C      0.704100000000     0.623110000000     0.401260000000     0          
H2       H      0.717800000000     0.598000000000     0.410200000000     0          
C4       C      0.761600000000     0.735670000000     0.465240000000     0          
C5       C      0.717100000000     0.692150000000     0.406350000000     0          
C6       C      0.807600000000     0.859890000000     0.382540000000     0          
H3       H      0.784500000000     0.867600000000     0.407500000000     0          
C7       C      0.888000000000     0.907540000000     0.288530000000     0          
C8       C      0.791700000000     0.771320000000     0.477540000000     0          
C9       C      0.735700000000     0.654990000000     0.419590000000     0          
H4       H      0.770100000000     0.651700000000     0.441100000000     0          
C10      C      0.822000000000     0.821310000000     0.375490000000     0          
C11      C      0.813100000000     0.799350000000     0.448750000000     0          
H5       H      0.834000000000     0.823000000000     0.457800000000     0          
C12      C      0.669000000000     0.696140000000     0.375580000000     0          
H6       H      0.658000000000     0.721300000000     0.365800000000     0          
C13      C      0.634300000000     0.663970000000     0.357290000000     0          
H7       H      0.598600000000     0.667300000000     0.336400000000     0          
C14      C      0.861300000000     0.877200000000     0.317490000000     0          
C15      C      0.826700000000     0.887380000000     0.353220000000     0          
H8       H      0.815600000000     0.913800000000     0.358100000000     0          
C16      C      0.803200000000     0.792030000000     0.406940000000     0          
C17      C      0.774500000000     0.756200000000     0.395010000000     0          
H9       H      0.769700000000     0.751000000000     0.366200000000     0          
C18      C      0.752300000000     0.727580000000     0.423080000000     0          
C19      C      0.851800000000     0.811520000000     0.339010000000     0          
H10      H      0.857300000000     0.784900000000     0.332400000000     0          
C20      C      0.874900000000     0.839240000000     0.310380000000     0          
H11      H      0.900100000000     0.831500000000     0.286100000000     0          
Zr1      Zr     0.500000000000     0.570620000000     0.282600000000     0          
O9       O      0.500000000000     0.535200000000     0.338720000000     0          
O11      O      0.500000000000     0.535080000000     0.227550000000     0          
Zr2      Zr     0.596110000000     0.500000000000     0.337850000000     0          
Zr3      Zr     0.595170000000     0.500000000000     0.227790000000     0          
N1       N      0.745000000000     0.714110000000     0.500000000000     0          
H1       H      0.726900000000     0.690600000000     0.500000000000     0          
O1       O      0.429400000000     0.397560000000     0.323340000000     0          
O2       O      0.071800000000     0.103420000000     0.259150000000     0          
O3       O      0.364500000000     0.440530000000     0.360090000000     0          
O5       O      0.132600000000     0.058140000000     0.295210000000     0          
O6       O      0.405400000000     0.465900000000     0.282870000000     0          
C1       C      0.383500000000     0.406420000000     0.350480000000     0          
C2       C      0.345500000000     0.373460000000     0.371130000000     0          
C3       C      0.295900000000     0.376890000000     0.401260000000     0          
H2       H      0.282200000000     0.402000000000     0.410200000000     0          
C4       C      0.238400000000     0.264330000000     0.465240000000     0          
C5       C      0.282900000000     0.307850000000     0.406350000000     0          
C6       C      0.192400000000     0.140110000000     0.382540000000     0          
H3       H      0.215500000000     0.132400000000     0.407500000000     0          
C7       C      0.112000000000     0.092460000000     0.288530000000     0          
C8       C      0.208300000000     0.228680000000     0.477540000000     0          
C9       C      0.264300000000     0.345010000000     0.419590000000     0          
H4       H      0.229900000000     0.348300000000     0.441100000000     0          
C10      C      0.178000000000     0.178690000000     0.375490000000     0          
C11      C      0.186900000000     0.200650000000     0.448750000000     0          
H5       H      0.166000000000     0.177000000000     0.457800000000     0          
C12      C      0.331000000000     0.303860000000     0.375580000000     0          
H6       H      0.342000000000     0.278700000000     0.365800000000     0          
C13      C      0.365700000000     0.336030000000     0.357290000000     0          
H7       H      0.401400000000     0.332700000000     0.336400000000     0          
C14      C      0.138700000000     0.122800000000     0.317490000000     0          
C15      C      0.173300000000     0.112620000000     0.353220000000     0          
H8       H      0.184400000000     0.086200000000     0.358100000000     0          
C16      C      0.196800000000     0.207970000000     0.406940000000     0          
C17      C      0.225500000000     0.243800000000     0.395010000000     0          
H9       H      0.230300000000     0.249000000000     0.366200000000     0          
C18      C      0.247700000000     0.272420000000     0.423080000000     0          
C19      C      0.148200000000     0.188480000000     0.339010000000     0          
H10      H      0.142700000000     0.215100000000     0.332400000000     0          
C20      C      0.125100000000     0.160760000000     0.310380000000     0          
H11      H      0.099900000000     0.168500000000     0.286100000000     0          
Zr1      Zr     0.500000000000     0.429380000000     0.282600000000     0          
O9       O      0.500000000000     0.464800000000     0.338720000000     0          
O11      O      0.500000000000     0.464920000000     0.227550000000     0          
Zr2      Zr     0.403890000000     0.500000000000     0.337850000000     0          
Zr3      Zr     0.404830000000     0.500000000000     0.227790000000     0          
N1       N      0.255000000000     0.285890000000     0.500000000000     0          
H1       H      0.273100000000     0.309400000000     0.500000000000     0          
O1       O      0.570600000000     0.397560000000     0.676660000000     0          
O2       O      0.928200000000     0.103420000000     0.740850000000     0          
O3       O      0.635500000000     0.440530000000     0.639910000000     0          
O5       O      0.867400000000     0.058140000000     0.704790000000     0          
O6       O      0.594600000000     0.465900000000     0.717130000000     0          
C1       C      0.616500000000     0.406420000000     0.649520000000     0          
C2       C      0.654500000000     0.373460000000     0.628870000000     0          
C3       C      0.704100000000     0.376890000000     0.598740000000     0          
H2       H      0.717800000000     0.402000000000     0.589800000000     0          
C4       C      0.761600000000     0.264330000000     0.534760000000     0          
C5       C      0.717100000000     0.307850000000     0.593650000000     0          
C6       C      0.807600000000     0.140110000000     0.617460000000     0          
H3       H      0.784500000000     0.132400000000     0.592500000000     0          
C7       C      0.888000000000     0.092460000000     0.711470000000     0          
C8       C      0.791700000000     0.228680000000     0.522460000000     0          
C9       C      0.735700000000     0.345010000000     0.580410000000     0          
H4       H      0.770100000000     0.348300000000     0.558900000000     0          
C10      C      0.822000000000     0.178690000000     0.624510000000     0          
C11      C      0.813100000000     0.200650000000     0.551250000000     0          
H5       H      0.834000000000     0.177000000000     0.542200000000     0          
C12      C      0.669000000000     0.303860000000     0.624420000000     0          
H6       H      0.658000000000     0.278700000000     0.634200000000     0          
C13      C      0.634300000000     0.336030000000     0.642710000000     0          
H7       H      0.598600000000     0.332700000000     0.663600000000     0          
C14      C      0.861300000000     0.122800000000     0.682510000000     0          
C15      C      0.826700000000     0.112620000000     0.646780000000     0          
H8       H      0.815600000000     0.086200000000     0.641900000000     0          
C16      C      0.803200000000     0.207970000000     0.593060000000     0          
C17      C      0.774500000000     0.243800000000     0.604990000000     0          
H9       H      0.769700000000     0.249000000000     0.633800000000     0          
C18      C      0.752300000000     0.272420000000     0.576920000000     0          
C19      C      0.851800000000     0.188480000000     0.660990000000     0          
H10      H      0.857300000000     0.215100000000     0.667600000000     0          
C20      C      0.874900000000     0.160760000000     0.689620000000     0          
H11      H      0.900100000000     0.168500000000     0.713900000000     0          
Zr1      Zr     0.500000000000     0.429380000000     0.717400000000     0          
O9       O      0.500000000000     0.464800000000     0.661280000000     0          
O11      O      0.500000000000     0.464920000000     0.772450000000     0          
Zr2      Zr     0.596110000000     0.500000000000     0.662150000000     0          
Zr3      Zr     0.595170000000     0.500000000000     0.772210000000     0          
N1       N      0.745000000000     0.285890000000     0.500000000000     0          
H1       H      0.726900000000     0.309400000000     0.500000000000     0          
O1       O      0.429400000000     0.602440000000     0.676660000000     0          
O2       O      0.071800000000     0.896580000000     0.740850000000     0          
O3       O      0.364500000000     0.559470000000     0.639910000000     0          
O5       O      0.132600000000     0.941860000000     0.704790000000     0          
O6       O      0.405400000000     0.534100000000     0.717130000000     0          
C1       C      0.383500000000     0.593580000000     0.649520000000     0          
C2       C      0.345500000000     0.626540000000     0.628870000000     0          
C3       C      0.295900000000     0.623110000000     0.598740000000     0          
H2       H      0.282200000000     0.598000000000     0.589800000000     0          
C4       C      0.238400000000     0.735670000000     0.534760000000     0          
C5       C      0.282900000000     0.692150000000     0.593650000000     0          
C6       C      0.192400000000     0.859890000000     0.617460000000     0          
H3       H      0.215500000000     0.867600000000     0.592500000000     0          
C7       C      0.112000000000     0.907540000000     0.711470000000     0          
C8       C      0.208300000000     0.771320000000     0.522460000000     0          
C9       C      0.264300000000     0.654990000000     0.580410000000     0          
H4       H      0.229900000000     0.651700000000     0.558900000000     0          
C10      C      0.178000000000     0.821310000000     0.624510000000     0          
C11      C      0.186900000000     0.799350000000     0.551250000000     0          
H5       H      0.166000000000     0.823000000000     0.542200000000     0          
C12      C      0.331000000000     0.696140000000     0.624420000000     0          
H6       H      0.342000000000     0.721300000000     0.634200000000     0          
C13      C      0.365700000000     0.663970000000     0.642710000000     0          
H7       H      0.401400000000     0.667300000000     0.663600000000     0          
C14      C      0.138700000000     0.877200000000     0.682510000000     0          
C15      C      0.173300000000     0.887380000000     0.646780000000     0          
H8       H      0.184400000000     0.913800000000     0.641900000000     0          
C16      C      0.196800000000     0.792030000000     0.593060000000     0          
C17      C      0.225500000000     0.756200000000     0.604990000000     0          
H9       H      0.230300000000     0.751000000000     0.633800000000     0          
C18      C      0.247700000000     0.727580000000     0.576920000000     0          
C19      C      0.148200000000     0.811520000000     0.660990000000     0          
H10      H      0.142700000000     0.784900000000     0.667600000000     0          
C20      C      0.125100000000     0.839240000000     0.689620000000     0          
H11      H      0.099900000000     0.831500000000     0.713900000000     0          
Zr1      Zr     0.500000000000     0.570620000000     0.717400000000     0          
O9       O      0.500000000000     0.535200000000     0.661280000000     0          
O11      O      0.500000000000     0.535080000000     0.772450000000     0          
Zr2      Zr     0.403890000000     0.500000000000     0.662150000000     0          
Zr3      Zr     0.404830000000     0.500000000000     0.772210000000     0          
N1       N      0.255000000000     0.714110000000     0.500000000000     0          
H1       H      0.273100000000     0.690600000000     0.500000000000     0          
O1       O      0.429400000000     0.397560000000     0.676660000000     0          
O2       O      0.071800000000     0.103420000000     0.740850000000     0          
O3       O      0.364500000000     0.440530000000     0.639910000000     0          
O5       O      0.132600000000     0.058140000000     0.704790000000     0          
O6       O      0.405400000000     0.465900000000     0.717130000000     0          
C1       C      0.383500000000     0.406420000000     0.649520000000     0          
C2       C      0.345500000000     0.373460000000     0.628870000000     0          
C3       C      0.295900000000     0.376890000000     0.598740000000     0          
H2       H      0.282200000000     0.402000000000     0.589800000000     0          
C4       C      0.238400000000     0.264330000000     0.534760000000     0          
C5       C      0.282900000000     0.307850000000     0.593650000000     0          
C6       C      0.192400000000     0.140110000000     0.617460000000     0          
H3       H      0.215500000000     0.132400000000     0.592500000000     0          
C7       C      0.112000000000     0.092460000000     0.711470000000     0          
C8       C      0.208300000000     0.228680000000     0.522460000000     0          
C9       C      0.264300000000     0.345010000000     0.580410000000     0          
H4       H      0.229900000000     0.348300000000     0.558900000000     0          
C10      C      0.178000000000     0.178690000000     0.624510000000     0          
C11      C      0.186900000000     0.200650000000     0.551250000000     0          
H5       H      0.166000000000     0.177000000000     0.542200000000     0          
C12      C      0.331000000000     0.303860000000     0.624420000000     0          
H6       H      0.342000000000     0.278700000000     0.634200000000     0          
C13      C      0.365700000000     0.336030000000     0.642710000000     0          
H7       H      0.401400000000     0.332700000000     0.663600000000     0          
C14      C      0.138700000000     0.122800000000     0.682510000000     0          
C15      C      0.173300000000     0.112620000000     0.646780000000     0          
H8       H      0.184400000000     0.086200000000     0.641900000000     0          
C16      C      0.196800000000     0.207970000000     0.593060000000     0          
C17      C      0.225500000000     0.243800000000     0.604990000000     0          
H9       H      0.230300000000     0.249000000000     0.633800000000     0          
C18      C      0.247700000000     0.272420000000     0.576920000000     0          
C19      C      0.148200000000     0.188480000000     0.660990000000     0          
H10      H      0.142700000000     0.215100000000     0.667600000000     0          
C20      C      0.125100000000     0.160760000000     0.689620000000     0          
H11      H      0.099900000000     0.168500000000     0.713900000000     0          
O1       O      0.570600000000     0.602440000000     0.676660000000     0          
O2       O      0.928200000000     0.896580000000     0.740850000000     0          
O3       O      0.635500000000     0.559470000000     0.639910000000     0          
O5       O      0.867400000000     0.941860000000     0.704790000000     0          
O6       O      0.594600000000     0.534100000000     0.717130000000     0          
C1       C      0.616500000000     0.593580000000     0.649520000000     0          
C2       C      0.654500000000     0.626540000000     0.628870000000     0          
C3       C      0.704100000000     0.623110000000     0.598740000000     0          
H2       H      0.717800000000     0.598000000000     0.589800000000     0          
C4       C      0.761600000000     0.735670000000     0.534760000000     0          
C5       C      0.717100000000     0.692150000000     0.593650000000     0          
C6       C      0.807600000000     0.859890000000     0.617460000000     0          
H3       H      0.784500000000     0.867600000000     0.592500000000     0          
C7       C      0.888000000000     0.907540000000     0.711470000000     0          
C8       C      0.791700000000     0.771320000000     0.522460000000     0          
C9       C      0.735700000000     0.654990000000     0.580410000000     0          
H4       H      0.770100000000     0.651700000000     0.558900000000     0          
C10      C      0.822000000000     0.821310000000     0.624510000000     0          
C11      C      0.813100000000     0.799350000000     0.551250000000     0          
H5       H      0.834000000000     0.823000000000     0.542200000000     0          
C12      C      0.669000000000     0.696140000000     0.624420000000     0          
H6       H      0.658000000000     0.721300000000     0.634200000000     0          
C13      C      0.634300000000     0.663970000000     0.642710000000     0          
H7       H      0.598600000000     0.667300000000     0.663600000000     0          
C14      C      0.861300000000     0.877200000000     0.682510000000     0          
C15      C      0.826700000000     0.887380000000     0.646780000000     0          
H8       H      0.815600000000     0.913800000000     0.641900000000     0          
C16      C      0.803200000000     0.792030000000     0.593060000000     0          
C17      C      0.774500000000     0.756200000000     0.604990000000     0          
H9       H      0.769700000000     0.751000000000     0.633800000000     0          
C18      C      0.752300000000     0.727580000000     0.576920000000     0          
C19      C      0.851800000000     0.811520000000     0.660990000000     0          
H10      H      0.857300000000     0.784900000000     0.667600000000     0          
C20      C      0.874900000000     0.839240000000     0.689620000000     0          
H11      H      0.900100000000     0.831500000000     0.713900000000     0          
O1       O      0.429400000000     0.602440000000     0.323340000000     0          
O2       O      0.071800000000     0.896580000000     0.259150000000     0          
O3       O      0.364500000000     0.559470000000     0.360090000000     0          
O5       O      0.132600000000     0.941860000000     0.295210000000     0          
O6       O      0.405400000000     0.534100000000     0.282870000000     0          
C1       C      0.383500000000     0.593580000000     0.350480000000     0          
C2       C      0.345500000000     0.626540000000     0.371130000000     0          
C3       C      0.295900000000     0.623110000000     0.401260000000     0          
H2       H      0.282200000000     0.598000000000     0.410200000000     0          
C4       C      0.238400000000     0.735670000000     0.465240000000     0          
C5       C      0.282900000000     0.692150000000     0.406350000000     0          
C6       C      0.192400000000     0.859890000000     0.382540000000     0          
H3       H      0.215500000000     0.867600000000     0.407500000000     0          
C7       C      0.112000000000     0.907540000000     0.288530000000     0          
C8       C      0.208300000000     0.771320000000     0.477540000000     0          
C9       C      0.264300000000     0.654990000000     0.419590000000     0          
H4       H      0.229900000000     0.651700000000     0.441100000000     0          
C10      C      0.178000000000     0.821310000000     0.375490000000     0          
C11      C      0.186900000000     0.799350000000     0.448750000000     0          
H5       H      0.166000000000     0.823000000000     0.457800000000     0          
C12      C      0.331000000000     0.696140000000     0.375580000000     0          
H6       H      0.342000000000     0.721300000000     0.365800000000     0          
C13      C      0.365700000000     0.663970000000     0.357290000000     0          
H7       H      0.401400000000     0.667300000000     0.336400000000     0          
C14      C      0.138700000000     0.877200000000     0.317490000000     0          
C15      C      0.173300000000     0.887380000000     0.353220000000     0          
H8       H      0.184400000000     0.913800000000     0.358100000000     0          
C16      C      0.196800000000     0.792030000000     0.406940000000     0          
C17      C      0.225500000000     0.756200000000     0.395010000000     0          
H9       H      0.230300000000     0.751000000000     0.366200000000     0          
C18      C      0.247700000000     0.727580000000     0.423080000000     0          
C19      C      0.148200000000     0.811520000000     0.339010000000     0          
H10      H      0.142700000000     0.784900000000     0.332400000000     0          
C20      C      0.125100000000     0.839240000000     0.310380000000     0          
H11      H      0.099900000000     0.831500000000     0.286100000000     0          
O1       O      0.570600000000     0.397560000000     0.323340000000     0          
O2       O      0.928200000000     0.103420000000     0.259150000000     0          
O3       O      0.635500000000     0.440530000000     0.360090000000     0          
O5       O      0.867400000000     0.058140000000     0.295210000000     0          
O6       O      0.594600000000     0.465900000000     0.282870000000     0          
C1       C      0.616500000000     0.406420000000     0.350480000000     0          
C2       C      0.654500000000     0.373460000000     0.371130000000     0          
C3       C      0.704100000000     0.376890000000     0.401260000000     0          
H2       H      0.717800000000     0.402000000000     0.410200000000     0          
C4       C      0.761600000000     0.264330000000     0.465240000000     0          
C5       C      0.717100000000     0.307850000000     0.406350000000     0          
C6       C      0.807600000000     0.140110000000     0.382540000000     0          
H3       H      0.784500000000     0.132400000000     0.407500000000     0          
C7       C      0.888000000000     0.092460000000     0.288530000000     0          
C8       C      0.791700000000     0.228680000000     0.477540000000     0          
C9       C      0.735700000000     0.345010000000     0.419590000000     0          
H4       H      0.770100000000     0.348300000000     0.441100000000     0          
C10      C      0.822000000000     0.178690000000     0.375490000000     0          
C11      C      0.813100000000     0.200650000000     0.448750000000     0          
H5       H      0.834000000000     0.177000000000     0.457800000000     0          
C12      C      0.669000000000     0.303860000000     0.375580000000     0          
H6       H      0.658000000000     0.278700000000     0.365800000000     0          
C13      C      0.634300000000     0.336030000000     0.357290000000     0          
H7       H      0.598600000000     0.332700000000     0.336400000000     0          
C14      C      0.861300000000     0.122800000000     0.317490000000     0          
C15      C      0.826700000000     0.112620000000     0.353220000000     0          
H8       H      0.815600000000     0.086200000000     0.358100000000     0          
C16      C      0.803200000000     0.207970000000     0.406940000000     0          
C17      C      0.774500000000     0.243800000000     0.395010000000     0          
H9       H      0.769700000000     0.249000000000     0.366200000000     0          
C18      C      0.752300000000     0.272420000000     0.423080000000     0          
C19      C      0.851800000000     0.188480000000     0.339010000000     0          
H10      H      0.857300000000     0.215100000000     0.332400000000     0          
C20      C      0.874900000000     0.160760000000     0.310380000000     0          
H11      H      0.900100000000     0.168500000000     0.286100000000     0          
O1       O      0.070600000000     0.102440000000     0.823340000000     0          
O2       O      0.428200000000     0.396580000000     0.759150000000     0          
O3       O      0.135500000000     0.059470000000     0.860090000000     0          
O5       O      0.367400000000     0.441860000000     0.795210000000     0          
O6       O      0.094600000000     0.034100000000     0.782870000000     0          
C1       C      0.116500000000     0.093580000000     0.850480000000     0          
C2       C      0.154500000000     0.126540000000     0.871130000000     0          
C3       C      0.204100000000     0.123110000000     0.901260000000     0          
H2       H      0.217800000000     0.098000000000     0.910200000000     0          
C4       C      0.261600000000     0.235670000000     0.965240000000     0          
C5       C      0.217100000000     0.192150000000     0.906350000000     0          
C6       C      0.307600000000     0.359890000000     0.882540000000     0          
H3       H      0.284500000000     0.367600000000     0.907500000000     0          
C7       C      0.388000000000     0.407540000000     0.788530000000     0          
C8       C      0.291700000000     0.271320000000     0.977540000000     0          
C9       C      0.235700000000     0.154990000000     0.919590000000     0          
H4       H      0.270100000000     0.151700000000     0.941100000000     0          
C10      C      0.322000000000     0.321310000000     0.875490000000     0          
C11      C      0.313100000000     0.299350000000     0.948750000000     0          
H5       H      0.334000000000     0.323000000000     0.957800000000     0          
C12      C      0.169000000000     0.196140000000     0.875580000000     0          
H6       H      0.158000000000     0.221300000000     0.865800000000     0          
C13      C      0.134300000000     0.163970000000     0.857290000000     0          
H7       H      0.098600000000     0.167300000000     0.836400000000     0          
C14      C      0.361300000000     0.377200000000     0.817490000000     0          
C15      C      0.326700000000     0.387380000000     0.853220000000     0          
H8       H      0.315600000000     0.413800000000     0.858100000000     0          
C16      C      0.303200000000     0.292030000000     0.906940000000     0          
C17      C      0.274500000000     0.256200000000     0.895010000000     0          
H9       H      0.269700000000     0.251000000000     0.866200000000     0          
C18      C      0.252300000000     0.227580000000     0.923080000000     0          
C19      C      0.351800000000     0.311520000000     0.839010000000     0          
H10      H      0.357300000000     0.284900000000     0.832400000000     0          
C20      C      0.374900000000     0.339240000000     0.810380000000     0          
H11      H      0.400100000000     0.331500000000     0.786100000000     0          
Zr1      Zr     0.000000000000     0.070620000000     0.782600000000     0          
O9       O      0.000000000000     0.035200000000     0.838720000000     0          
O11      O      0.000000000000     0.035080000000     0.727550000000     0          
Zr2      Zr     0.096110000000     0.000000000000     0.837850000000     0          
Zr3      Zr     0.095170000000     0.000000000000     0.727790000000     0          
N1       N      0.245000000000     0.214110000000     0.000000000000     0          
H1       H      0.226900000000     0.190600000000     0.000000000000     0          
O1       O      0.929400000000     0.897560000000     0.823340000000     0          
O2       O      0.571800000000     0.603420000000     0.759150000000     0          
O3       O      0.864500000000     0.940530000000     0.860090000000     0          
O5       O      0.632600000000     0.558140000000     0.795210000000     0          
O6       O      0.905400000000     0.965900000000     0.782870000000     0          
C1       C      0.883500000000     0.906420000000     0.850480000000     0          
C2       C      0.845500000000     0.873460000000     0.871130000000     0          
C3       C      0.795900000000     0.876890000000     0.901260000000     0          
H2       H      0.782200000000     0.902000000000     0.910200000000     0          
C4       C      0.738400000000     0.764330000000     0.965240000000     0          
C5       C      0.782900000000     0.807850000000     0.906350000000     0          
C6       C      0.692400000000     0.640110000000     0.882540000000     0          
H3       H      0.715500000000     0.632400000000     0.907500000000     0          
C7       C      0.612000000000     0.592460000000     0.788530000000     0          
C8       C      0.708300000000     0.728680000000     0.977540000000     0          
C9       C      0.764300000000     0.845010000000     0.919590000000     0          
H4       H      0.729900000000     0.848300000000     0.941100000000     0          
C10      C      0.678000000000     0.678690000000     0.875490000000     0          
C11      C      0.686900000000     0.700650000000     0.948750000000     0          
H5       H      0.666000000000     0.677000000000     0.957800000000     0          
C12      C      0.831000000000     0.803860000000     0.875580000000     0          
H6       H      0.842000000000     0.778700000000     0.865800000000     0          
C13      C      0.865700000000     0.836030000000     0.857290000000     0          
H7       H      0.901400000000     0.832700000000     0.836400000000     0          
C14      C      0.638700000000     0.622800000000     0.817490000000     0          
C15      C      0.673300000000     0.612620000000     0.853220000000     0          
H8       H      0.684400000000     0.586200000000     0.858100000000     0          
C16      C      0.696800000000     0.707970000000     0.906940000000     0          
C17      C      0.725500000000     0.743800000000     0.895010000000     0          
H9       H      0.730300000000     0.749000000000     0.866200000000     0          
C18      C      0.747700000000     0.772420000000     0.923080000000     0          
C19      C      0.648200000000     0.688480000000     0.839010000000     0          
H10      H      0.642700000000     0.715100000000     0.832400000000     0          
C20      C      0.625100000000     0.660760000000     0.810380000000     0          
H11      H      0.599900000000     0.668500000000     0.786100000000     0          
Zr1      Zr     0.000000000000     0.929380000000     0.782600000000     0          
O9       O      0.000000000000     0.964800000000     0.838720000000     0          
O11      O      0.000000000000     0.964920000000     0.727550000000     0          
Zr2      Zr     0.903890000000     0.000000000000     0.837850000000     0          
Zr3      Zr     0.904830000000     0.000000000000     0.727790000000     0          
N1       N      0.755000000000     0.785890000000     0.000000000000     0          
H1       H      0.773100000000     0.809400000000     0.000000000000     0          
O1       O      0.070600000000     0.897560000000     0.176660000000     0          
O2       O      0.428200000000     0.603420000000     0.240850000000     0          
O3       O      0.135500000000     0.940530000000     0.139910000000     0          
O5       O      0.367400000000     0.558140000000     0.204790000000     0          
O6       O      0.094600000000     0.965900000000     0.217130000000     0          
C1       C      0.116500000000     0.906420000000     0.149520000000     0          
C2       C      0.154500000000     0.873460000000     0.128870000000     0          
C3       C      0.204100000000     0.876890000000     0.098740000000     0          
H2       H      0.217800000000     0.902000000000     0.089800000000     0          
C4       C      0.261600000000     0.764330000000     0.034760000000     0          
C5       C      0.217100000000     0.807850000000     0.093650000000     0          
C6       C      0.307600000000     0.640110000000     0.117460000000     0          
H3       H      0.284500000000     0.632400000000     0.092500000000     0          
C7       C      0.388000000000     0.592460000000     0.211470000000     0          
C8       C      0.291700000000     0.728680000000     0.022460000000     0          
C9       C      0.235700000000     0.845010000000     0.080410000000     0          
H4       H      0.270100000000     0.848300000000     0.058900000000     0          
C10      C      0.322000000000     0.678690000000     0.124510000000     0          
C11      C      0.313100000000     0.700650000000     0.051250000000     0          
H5       H      0.334000000000     0.677000000000     0.042200000000     0          
C12      C      0.169000000000     0.803860000000     0.124420000000     0          
H6       H      0.158000000000     0.778700000000     0.134200000000     0          
C13      C      0.134300000000     0.836030000000     0.142710000000     0          
H7       H      0.098600000000     0.832700000000     0.163600000000     0          
C14      C      0.361300000000     0.622800000000     0.182510000000     0          
C15      C      0.326700000000     0.612620000000     0.146780000000     0          
H8       H      0.315600000000     0.586200000000     0.141900000000     0          
C16      C      0.303200000000     0.707970000000     0.093060000000     0          
C17      C      0.274500000000     0.743800000000     0.104990000000     0          
H9       H      0.269700000000     0.749000000000     0.133800000000     0          
C18      C      0.252300000000     0.772420000000     0.076920000000     0          
C19      C      0.351800000000     0.688480000000     0.160990000000     0          
H10      H      0.357300000000     0.715100000000     0.167600000000     0          
C20      C      0.374900000000     0.660760000000     0.189620000000     0          
H11      H      0.400100000000     0.668500000000     0.213900000000     0          
Zr1      Zr     0.000000000000     0.929380000000     0.217400000000     0          
O9       O      0.000000000000     0.964800000000     0.161280000000     0          
O11      O      0.000000000000     0.964920000000     0.272450000000     0          
Zr2      Zr     0.096110000000     0.000000000000     0.162150000000     0          
Zr3      Zr     0.095170000000     0.000000000000     0.272210000000     0          
N1       N      0.245000000000     0.785890000000     0.000000000000     0          
H1       H      0.226900000000     0.809400000000     0.000000000000     0          
O1       O      0.929400000000     0.102440000000     0.176660000000     0          
O2       O      0.571800000000     0.396580000000     0.240850000000     0          
O3       O      0.864500000000     0.059470000000     0.139910000000     0          
O5       O      0.632600000000     0.441860000000     0.204790000000     0          
O6       O      0.905400000000     0.034100000000     0.217130000000     0          
C1       C      0.883500000000     0.093580000000     0.149520000000     0          
C2       C      0.845500000000     0.126540000000     0.128870000000     0          
C3       C      0.795900000000     0.123110000000     0.098740000000     0          
H2       H      0.782200000000     0.098000000000     0.089800000000     0          
C4       C      0.738400000000     0.235670000000     0.034760000000     0          
C5       C      0.782900000000     0.192150000000     0.093650000000     0          
C6       C      0.692400000000     0.359890000000     0.117460000000     0          
H3       H      0.715500000000     0.367600000000     0.092500000000     0          
C7       C      0.612000000000     0.407540000000     0.211470000000     0          
C8       C      0.708300000000     0.271320000000     0.022460000000     0          
C9       C      0.764300000000     0.154990000000     0.080410000000     0          
H4       H      0.729900000000     0.151700000000     0.058900000000     0          
C10      C      0.678000000000     0.321310000000     0.124510000000     0          
C11      C      0.686900000000     0.299350000000     0.051250000000     0          
H5       H      0.666000000000     0.323000000000     0.042200000000     0          
C12      C      0.831000000000     0.196140000000     0.124420000000     0          
H6       H      0.842000000000     0.221300000000     0.134200000000     0          
C13      C      0.865700000000     0.163970000000     0.142710000000     0          
H7       H      0.901400000000     0.167300000000     0.163600000000     0          
C14      C      0.638700000000     0.377200000000     0.182510000000     0          
C15      C      0.673300000000     0.387380000000     0.146780000000     0          
H8       H      0.684400000000     0.413800000000     0.141900000000     0          
C16      C      0.696800000000     0.292030000000     0.093060000000     0          
C17      C      0.725500000000     0.256200000000     0.104990000000     0          
H9       H      0.730300000000     0.251000000000     0.133800000000     0          
C18      C      0.747700000000     0.227580000000     0.076920000000     0          
C19      C      0.648200000000     0.311520000000     0.160990000000     0          
H10      H      0.642700000000     0.284900000000     0.167600000000     0          
C20      C      0.625100000000     0.339240000000     0.189620000000     0          
H11      H      0.599900000000     0.331500000000     0.213900000000     0          
Zr1      Zr     0.000000000000     0.070620000000     0.217400000000     0          
O9       O      0.000000000000     0.035200000000     0.161280000000     0          
O11      O      0.000000000000     0.035080000000     0.272450000000     0          
Zr2      Zr     0.903890000000     0.000000000000     0.162150000000     0          
Zr3      Zr     0.904830000000     0.000000000000     0.272210000000     0          
N1       N      0.755000000000     0.214110000000     0.000000000000     0          
H1       H      0.773100000000     0.190600000000     0.000000000000     0          
O1       O      0.929400000000     0.897560000000     0.176660000000     0          
O2       O      0.571800000000     0.603420000000     0.240850000000     0          
O3       O      0.864500000000     0.940530000000     0.139910000000     0          
O5       O      0.632600000000     0.558140000000     0.204790000000     0          
O6       O      0.905400000000     0.965900000000     0.217130000000     0          
C1       C      0.883500000000     0.906420000000     0.149520000000     0          
C2       C      0.845500000000     0.873460000000     0.128870000000     0          
C3       C      0.795900000000     0.876890000000     0.098740000000     0          
H2       H      0.782200000000     0.902000000000     0.089800000000     0          
C4       C      0.738400000000     0.764330000000     0.034760000000     0          
C5       C      0.782900000000     0.807850000000     0.093650000000     0          
C6       C      0.692400000000     0.640110000000     0.117460000000     0          
H3       H      0.715500000000     0.632400000000     0.092500000000     0          
C7       C      0.612000000000     0.592460000000     0.211470000000     0          
C8       C      0.708300000000     0.728680000000     0.022460000000     0          
C9       C      0.764300000000     0.845010000000     0.080410000000     0          
H4       H      0.729900000000     0.848300000000     0.058900000000     0          
C10      C      0.678000000000     0.678690000000     0.124510000000     0          
C11      C      0.686900000000     0.700650000000     0.051250000000     0          
H5       H      0.666000000000     0.677000000000     0.042200000000     0          
C12      C      0.831000000000     0.803860000000     0.124420000000     0          
H6       H      0.842000000000     0.778700000000     0.134200000000     0          
C13      C      0.865700000000     0.836030000000     0.142710000000     0          
H7       H      0.901400000000     0.832700000000     0.163600000000     0          
C14      C      0.638700000000     0.622800000000     0.182510000000     0          
C15      C      0.673300000000     0.612620000000     0.146780000000     0          
H8       H      0.684400000000     0.586200000000     0.141900000000     0          
C16      C      0.696800000000     0.707970000000     0.093060000000     0          
C17      C      0.725500000000     0.743800000000     0.104990000000     0          
H9       H      0.730300000000     0.749000000000     0.133800000000     0          
C18      C      0.747700000000     0.772420000000     0.076920000000     0          
C19      C      0.648200000000     0.688480000000     0.160990000000     0          
H10      H      0.642700000000     0.715100000000     0.167600000000     0          
C20      C      0.625100000000     0.660760000000     0.189620000000     0          
H11      H      0.599900000000     0.668500000000     0.213900000000     0          
O1       O      0.070600000000     0.102440000000     0.176660000000     0          
O2       O      0.428200000000     0.396580000000     0.240850000000     0          
O3       O      0.135500000000     0.059470000000     0.139910000000     0          
O5       O      0.367400000000     0.441860000000     0.204790000000     0          
O6       O      0.094600000000     0.034100000000     0.217130000000     0          
C1       C      0.116500000000     0.093580000000     0.149520000000     0          
C2       C      0.154500000000     0.126540000000     0.128870000000     0          
C3       C      0.204100000000     0.123110000000     0.098740000000     0          
H2       H      0.217800000000     0.098000000000     0.089800000000     0          
C4       C      0.261600000000     0.235670000000     0.034760000000     0          
C5       C      0.217100000000     0.192150000000     0.093650000000     0          
C6       C      0.307600000000     0.359890000000     0.117460000000     0          
H3       H      0.284500000000     0.367600000000     0.092500000000     0          
C7       C      0.388000000000     0.407540000000     0.211470000000     0          
C8       C      0.291700000000     0.271320000000     0.022460000000     0          
C9       C      0.235700000000     0.154990000000     0.080410000000     0          
H4       H      0.270100000000     0.151700000000     0.058900000000     0          
C10      C      0.322000000000     0.321310000000     0.124510000000     0          
C11      C      0.313100000000     0.299350000000     0.051250000000     0          
H5       H      0.334000000000     0.323000000000     0.042200000000     0          
C12      C      0.169000000000     0.196140000000     0.124420000000     0          
H6       H      0.158000000000     0.221300000000     0.134200000000     0          
C13      C      0.134300000000     0.163970000000     0.142710000000     0          
H7       H      0.098600000000     0.167300000000     0.163600000000     0          
C14      C      0.361300000000     0.377200000000     0.182510000000     0          
C15      C      0.326700000000     0.387380000000     0.146780000000     0          
H8       H      0.315600000000     0.413800000000     0.141900000000     0          
C16      C      0.303200000000     0.292030000000     0.093060000000     0          
C17      C      0.274500000000     0.256200000000     0.104990000000     0          
H9       H      0.269700000000     0.251000000000     0.133800000000     0          
C18      C      0.252300000000     0.227580000000     0.076920000000     0          
C19      C      0.351800000000     0.311520000000     0.160990000000     0          
H10      H      0.357300000000     0.284900000000     0.167600000000     0          
C20      C      0.374900000000     0.339240000000     0.189620000000     0          
H11      H      0.400100000000     0.331500000000     0.213900000000     0          
O1       O      0.929400000000     0.102440000000     0.823340000000     0          
O2       O      0.571800000000     0.396580000000     0.759150000000     0          
O3       O      0.864500000000     0.059470000000     0.860090000000     0          
O5       O      0.632600000000     0.441860000000     0.795210000000     0          
O6       O      0.905400000000     0.034100000000     0.782870000000     0          
C1       C      0.883500000000     0.093580000000     0.850480000000     0          
C2       C      0.845500000000     0.126540000000     0.871130000000     0          
C3       C      0.795900000000     0.123110000000     0.901260000000     0          
H2       H      0.782200000000     0.098000000000     0.910200000000     0          
C4       C      0.738400000000     0.235670000000     0.965240000000     0          
C5       C      0.782900000000     0.192150000000     0.906350000000     0          
C6       C      0.692400000000     0.359890000000     0.882540000000     0          
H3       H      0.715500000000     0.367600000000     0.907500000000     0          
C7       C      0.612000000000     0.407540000000     0.788530000000     0          
C8       C      0.708300000000     0.271320000000     0.977540000000     0          
C9       C      0.764300000000     0.154990000000     0.919590000000     0          
H4       H      0.729900000000     0.151700000000     0.941100000000     0          
C10      C      0.678000000000     0.321310000000     0.875490000000     0          
C11      C      0.686900000000     0.299350000000     0.948750000000     0          
H5       H      0.666000000000     0.323000000000     0.957800000000     0          
C12      C      0.831000000000     0.196140000000     0.875580000000     0          
H6       H      0.842000000000     0.221300000000     0.865800000000     0          
C13      C      0.865700000000     0.163970000000     0.857290000000     0          
H7       H      0.901400000000     0.167300000000     0.836400000000     0          
C14      C      0.638700000000     0.377200000000     0.817490000000     0          
C15      C      0.673300000000     0.387380000000     0.853220000000     0          
H8       H      0.684400000000     0.413800000000     0.858100000000     0          
C16      C      0.696800000000     0.292030000000     0.906940000000     0          
C17      C      0.725500000000     0.256200000000     0.895010000000     0          
H9       H      0.730300000000     0.251000000000     0.866200000000     0          
C18      C      0.747700000000     0.227580000000     0.923080000000     0          
C19      C      0.648200000000     0.311520000000     0.839010000000     0          
H10      H      0.642700000000     0.284900000000     0.832400000000     0          
C20      C      0.625100000000     0.339240000000     0.810380000000     0          
H11      H      0.599900000000     0.331500000000     0.786100000000     0          
O1       O      0.070600000000     0.897560000000     0.823340000000     0          
O2       O      0.428200000000     0.603420000000     0.759150000000     0          
O3       O      0.135500000000     0.940530000000     0.860090000000     0          
O5       O      0.367400000000     0.558140000000     0.795210000000     0          
O6       O      0.094600000000     0.965900000000     0.782870000000     0          
C1       C      0.116500000000     0.906420000000     0.850480000000     0          
C2       C      0.154500000000     0.873460000000     0.871130000000     0          
C3       C      0.204100000000     0.876890000000     0.901260000000     0          
H2       H      0.217800000000     0.902000000000     0.910200000000     0          
C4       C      0.261600000000     0.764330000000     0.965240000000     0          
C5       C      0.217100000000     0.807850000000     0.906350000000     0          
C6       C      0.307600000000     0.640110000000     0.882540000000     0          
H3       H      0.284500000000     0.632400000000     0.907500000000     0          
C7       C      0.388000000000     0.592460000000     0.788530000000     0          
C8       C      0.291700000000     0.728680000000     0.977540000000     0          
C9       C      0.235700000000     0.845010000000     0.919590000000     0          
H4       H      0.270100000000     0.848300000000     0.941100000000     0          
C10      C      0.322000000000     0.678690000000     0.875490000000     0          
C11      C      0.313100000000     0.700650000000     0.948750000000     0          
H5       H      0.334000000000     0.677000000000     0.957800000000     0          
C12      C      0.169000000000     0.803860000000     0.875580000000     0          
H6       H      0.158000000000     0.778700000000     0.865800000000     0          
C13      C      0.134300000000     0.836030000000     0.857290000000     0          
H7       H      0.098600000000     0.832700000000     0.836400000000     0          
C14      C      0.361300000000     0.622800000000     0.817490000000     0          
C15      C      0.326700000000     0.612620000000     0.853220000000     0          
H8       H      0.315600000000     0.586200000000     0.858100000000     0          
C16      C      0.303200000000     0.707970000000     0.906940000000     0          
C17      C      0.274500000000     0.743800000000     0.895010000000     0          
H9       H      0.269700000000     0.749000000000     0.866200000000     0          
C18      C      0.252300000000     0.772420000000     0.923080000000     0          
C19      C      0.351800000000     0.688480000000     0.839010000000     0          
H10      H      0.357300000000     0.715100000000     0.832400000000     0          
C20      C      0.374900000000     0.660760000000     0.810380000000     0          
H11      H      0.400100000000     0.668500000000     0.786100000000     0          


