data_NIHHUK

_audit_creation_method RASPA-1.0
_audit_creation_date 2020-11-2
_audit_author_name 'Rocio Bueno-Perez'

_cell_length_a    22.7409
_cell_length_b    30.7669
_cell_length_c    32.844
_cell_angle_alpha 90
_cell_angle_beta  90
_cell_angle_gamma 90
_cell_volume      22979.9

_symmetry_cell_setting          triclinic
_symmetry_space_group_name_Hall 'P 1'
_symmetry_space_group_name_H-M  'P 1'
_symmetry_Int_Tables_number     1

_symmetry_equiv_pos_as_xyz 'x,y,z'

loop_
_atom_site_label
_atom_site_type_symbol
_atom_site_fract_x
_atom_site_fract_y
_atom_site_fract_z
_atom_site_charge
O1       O      0.424620000000     0.290600000000     0.462740000000     0          
O2       O      0.108470000000     0.290360000000     0.059860000000     0          
O3       O      0.441100000000     0.332410000000     0.391340000000     0          
O4       O      0.059470000000     0.254360000000     0.108850000000     0          
O5       O      0.389460000000     0.368940000000     0.437970000000     0          
C6       C      0.398050000000     0.358180000000     0.402970000000     0          
C7       C      0.094280000000     0.282620000000     0.097220000000     0          
C8       C      0.364170000000     0.374890000000     0.367880000000     0          
C9       C      0.291600000000     0.404530000000     0.306010000000     0          
C10      C      0.141410000000     0.331690000000     0.196020000000     0          
H11      H      0.138600000000     0.325500000000     0.224300000000     0          
C12      C      0.120330000000     0.312520000000     0.127570000000     0          
C13      C      0.322730000000     0.406800000000     0.374600000000     0          
H14      H      0.317700000000     0.418900000000     0.401000000000     0          
C15      C      0.183650000000     0.447270000000     0.204600000000     0          
H16      H      0.162200000000     0.456500000000     0.181300000000     0          
C17      C      0.330380000000     0.373310000000     0.299220000000     0          
H18      H      0.331400000000     0.359900000000     0.273200000000     0          
C19      C      0.371290000000     0.358860000000     0.330030000000     0          
H20      H      0.401900000000     0.338900000000     0.323900000000     0          
C21      C      0.229630000000     0.389960000000     0.244550000000     0          
H22      H      0.237300000000     0.359800000000     0.248100000000     0          
C23      C      0.207090000000     0.476950000000     0.231300000000     0          
C24      C      0.148400000000     0.350660000000     0.114210000000     0          
H25      H      0.151800000000     0.356700000000     0.086000000000     0          
C26      C      0.256010000000     0.419350000000     0.271360000000     0          
C27      C      0.192400000000     0.402580000000     0.212710000000     0          
C28      C      0.289850000000     0.420400000000     0.343520000000     0          
H29      H      0.262900000000     0.443400000000     0.348700000000     0          
C30      C      0.170740000000     0.378820000000     0.142340000000     0          
H31      H      0.188500000000     0.405100000000     0.133400000000     0          
C32      C      0.168200000000     0.370180000000     0.182730000000     0          
C33      C      0.119140000000     0.302840000000     0.167940000000     0          
H34      H      0.102900000000     0.276000000000     0.176800000000     0          
C35      C      0.245230000000     0.463610000000     0.263150000000     0          
C36      C      0.211650000000     0.320690000000     0.485780000000     0          
C37      C      0.151260000000     0.313210000000     0.481750000000     0          
C38      C      0.152650000000     0.249890000000     0.513080000000     0          
C39      C      0.213570000000     0.253200000000     0.508520000000     0          
O40      O      0.924620000000     0.790600000000     0.962740000000     0          
O41      O      0.608470000000     0.790360000000     0.559860000000     0          
O42      O      0.941100000000     0.832410000000     0.891340000000     0          
O43      O      0.559470000000     0.754360000000     0.608850000000     0          
O44      O      0.889460000000     0.868940000000     0.937970000000     0          
C45      C      0.898050000000     0.858180000000     0.902970000000     0          
C46      C      0.594280000000     0.782620000000     0.597220000000     0          
C47      C      0.864170000000     0.874890000000     0.867880000000     0          
C48      C      0.791600000000     0.904530000000     0.806010000000     0          
C49      C      0.641410000000     0.831690000000     0.696020000000     0          
H50      H      0.638600000000     0.825500000000     0.724300000000     0          
C51      C      0.620330000000     0.812520000000     0.627570000000     0          
C52      C      0.822730000000     0.906800000000     0.874600000000     0          
H53      H      0.817700000000     0.918900000000     0.901000000000     0          
C54      C      0.683650000000     0.947270000000     0.704600000000     0          
H55      H      0.662200000000     0.956500000000     0.681300000000     0          
C56      C      0.830380000000     0.873310000000     0.799220000000     0          
H57      H      0.831400000000     0.859900000000     0.773200000000     0          
C58      C      0.871290000000     0.858860000000     0.830030000000     0          
H59      H      0.901900000000     0.838900000000     0.823900000000     0          
C60      C      0.729630000000     0.889960000000     0.744550000000     0          
H61      H      0.737300000000     0.859800000000     0.748100000000     0          
C62      C      0.707090000000     0.976950000000     0.731300000000     0          
C63      C      0.648400000000     0.850660000000     0.614210000000     0          
H64      H      0.651800000000     0.856700000000     0.586000000000     0          
C65      C      0.756010000000     0.919350000000     0.771360000000     0          
C66      C      0.692400000000     0.902580000000     0.712710000000     0          
C67      C      0.789850000000     0.920400000000     0.843520000000     0          
H68      H      0.762900000000     0.943400000000     0.848700000000     0          
C69      C      0.670740000000     0.878820000000     0.642340000000     0          
H70      H      0.688500000000     0.905100000000     0.633400000000     0          
C71      C      0.668200000000     0.870180000000     0.682730000000     0          
C72      C      0.619140000000     0.802840000000     0.667940000000     0          
H73      H      0.602900000000     0.776000000000     0.676800000000     0          
C74      C      0.745230000000     0.963610000000     0.763150000000     0          
O75      O      0.575380000000     0.709400000000     0.462740000000     0          
O76      O      0.891530000000     0.709640000000     0.059860000000     0          
O77      O      0.558900000000     0.667590000000     0.391340000000     0          
O78      O      0.940530000000     0.745640000000     0.108850000000     0          
O79      O      0.610540000000     0.631060000000     0.437970000000     0          
C80      C      0.601950000000     0.641820000000     0.402970000000     0          
C81      C      0.905720000000     0.717380000000     0.097220000000     0          
C82      C      0.635830000000     0.625110000000     0.367880000000     0          
C83      C      0.708400000000     0.595470000000     0.306010000000     0          
C84      C      0.858590000000     0.668310000000     0.196020000000     0          
H85      H      0.861400000000     0.674500000000     0.224300000000     0          
C86      C      0.879670000000     0.687480000000     0.127570000000     0          
C87      C      0.677270000000     0.593200000000     0.374600000000     0          
H88      H      0.682300000000     0.581100000000     0.401000000000     0          
C89      C      0.816350000000     0.552730000000     0.204600000000     0          
H90      H      0.837800000000     0.543500000000     0.181300000000     0          
C91      C      0.669620000000     0.626690000000     0.299220000000     0          
H92      H      0.668600000000     0.640100000000     0.273200000000     0          
C93      C      0.628710000000     0.641140000000     0.330030000000     0          
H94      H      0.598100000000     0.661100000000     0.323900000000     0          
C95      C      0.770370000000     0.610040000000     0.244550000000     0          
H96      H      0.762700000000     0.640200000000     0.248100000000     0          
C97      C      0.792910000000     0.523050000000     0.231300000000     0          
C98      C      0.851600000000     0.649340000000     0.114210000000     0          
H99      H      0.848200000000     0.643300000000     0.086000000000     0          
C100     C      0.743990000000     0.580650000000     0.271360000000     0          
C101     C      0.807600000000     0.597420000000     0.212710000000     0          
C102     C      0.710150000000     0.579600000000     0.343520000000     0          
H103     H      0.737100000000     0.556600000000     0.348700000000     0          
C104     C      0.829260000000     0.621180000000     0.142340000000     0          
H105     H      0.811500000000     0.594900000000     0.133400000000     0          
C106     C      0.831800000000     0.629820000000     0.182730000000     0          
C107     C      0.880860000000     0.697160000000     0.167940000000     0          
H108     H      0.897100000000     0.724000000000     0.176800000000     0          
C109     C      0.754770000000     0.536390000000     0.263150000000     0          
O110     O      0.075380000000     0.209400000000     0.962740000000     0          
O111     O      0.391530000000     0.209640000000     0.559860000000     0          
O112     O      0.058900000000     0.167590000000     0.891340000000     0          
O113     O      0.440530000000     0.245640000000     0.608850000000     0          
O114     O      0.110540000000     0.131060000000     0.937970000000     0          
C115     C      0.101950000000     0.141820000000     0.902970000000     0          
C116     C      0.405720000000     0.217380000000     0.597220000000     0          
C117     C      0.135830000000     0.125110000000     0.867880000000     0          
C118     C      0.208400000000     0.095470000000     0.806010000000     0          
C119     C      0.358590000000     0.168310000000     0.696020000000     0          
H120     H      0.361400000000     0.174500000000     0.724300000000     0          
C121     C      0.379670000000     0.187480000000     0.627570000000     0          
C122     C      0.177270000000     0.093200000000     0.874600000000     0          
H123     H      0.182300000000     0.081100000000     0.901000000000     0          
C124     C      0.316350000000     0.052730000000     0.704600000000     0          
H125     H      0.337800000000     0.043500000000     0.681300000000     0          
C126     C      0.169620000000     0.126690000000     0.799220000000     0          
H127     H      0.168600000000     0.140100000000     0.773200000000     0          
C128     C      0.128710000000     0.141140000000     0.830030000000     0          
H129     H      0.098100000000     0.161100000000     0.823900000000     0          
C130     C      0.270370000000     0.110040000000     0.744550000000     0          
H131     H      0.262700000000     0.140200000000     0.748100000000     0          
C132     C      0.292910000000     0.023050000000     0.731300000000     0          
C133     C      0.351600000000     0.149340000000     0.614210000000     0          
H134     H      0.348200000000     0.143300000000     0.586000000000     0          
C135     C      0.243990000000     0.080650000000     0.771360000000     0          
C136     C      0.307600000000     0.097420000000     0.712710000000     0          
C137     C      0.210150000000     0.079600000000     0.843520000000     0          
H138     H      0.237100000000     0.056600000000     0.848700000000     0          
C139     C      0.329260000000     0.121180000000     0.642340000000     0          
H140     H      0.311500000000     0.094900000000     0.633400000000     0          
C141     C      0.331800000000     0.129820000000     0.682730000000     0          
C142     C      0.380860000000     0.197160000000     0.667940000000     0          
H143     H      0.397100000000     0.224000000000     0.676800000000     0          
C144     C      0.254770000000     0.036390000000     0.763150000000     0          
O145     O      0.575380000000     0.290600000000     0.537260000000     0          
O146     O      0.891530000000     0.290360000000     0.940140000000     0          
O147     O      0.558900000000     0.332410000000     0.608660000000     0          
O148     O      0.940530000000     0.254360000000     0.891150000000     0          
O149     O      0.610540000000     0.368940000000     0.562030000000     0          
C150     C      0.601950000000     0.358180000000     0.597030000000     0          
C151     C      0.905720000000     0.282620000000     0.902780000000     0          
C152     C      0.635830000000     0.374890000000     0.632120000000     0          
C153     C      0.708400000000     0.404530000000     0.693990000000     0          
C154     C      0.858590000000     0.331690000000     0.803980000000     0          
H155     H      0.861400000000     0.325500000000     0.775700000000     0          
C156     C      0.879670000000     0.312520000000     0.872430000000     0          
C157     C      0.677270000000     0.406800000000     0.625400000000     0          
H158     H      0.682300000000     0.418900000000     0.599000000000     0          
C159     C      0.816350000000     0.447270000000     0.795400000000     0          
H160     H      0.837800000000     0.456500000000     0.818700000000     0          
C161     C      0.669620000000     0.373310000000     0.700780000000     0          
H162     H      0.668600000000     0.359900000000     0.726800000000     0          
C163     C      0.628710000000     0.358860000000     0.669970000000     0          
H164     H      0.598100000000     0.338900000000     0.676100000000     0          
C165     C      0.770370000000     0.389960000000     0.755450000000     0          
H166     H      0.762700000000     0.359800000000     0.751900000000     0          
C167     C      0.792910000000     0.476950000000     0.768700000000     0          
C168     C      0.851600000000     0.350660000000     0.885790000000     0          
H169     H      0.848200000000     0.356700000000     0.914000000000     0          
C170     C      0.743990000000     0.419350000000     0.728640000000     0          
C171     C      0.807600000000     0.402580000000     0.787290000000     0          
C172     C      0.710150000000     0.420400000000     0.656480000000     0          
H173     H      0.737100000000     0.443400000000     0.651300000000     0          
C174     C      0.829260000000     0.378820000000     0.857660000000     0          
H175     H      0.811500000000     0.405100000000     0.866600000000     0          
C176     C      0.831800000000     0.370180000000     0.817270000000     0          
C177     C      0.880860000000     0.302840000000     0.832060000000     0          
H178     H      0.897100000000     0.276000000000     0.823200000000     0          
C179     C      0.754770000000     0.463610000000     0.736850000000     0          
O180     O      0.075380000000     0.790600000000     0.037260000000     0          
O181     O      0.391530000000     0.790360000000     0.440140000000     0          
O182     O      0.058900000000     0.832410000000     0.108660000000     0          
O183     O      0.440530000000     0.754360000000     0.391150000000     0          
O184     O      0.110540000000     0.868940000000     0.062030000000     0          
C185     C      0.101950000000     0.858180000000     0.097030000000     0          
C186     C      0.405720000000     0.782620000000     0.402780000000     0          
C187     C      0.135830000000     0.874890000000     0.132120000000     0          
C188     C      0.208400000000     0.904530000000     0.193990000000     0          
C189     C      0.358590000000     0.831690000000     0.303980000000     0          
H190     H      0.361400000000     0.825500000000     0.275700000000     0          
C191     C      0.379670000000     0.812520000000     0.372430000000     0          
C192     C      0.177270000000     0.906800000000     0.125400000000     0          
H193     H      0.182300000000     0.918900000000     0.099000000000     0          
C194     C      0.316350000000     0.947270000000     0.295400000000     0          
H195     H      0.337800000000     0.956500000000     0.318700000000     0          
C196     C      0.169620000000     0.873310000000     0.200780000000     0          
H197     H      0.168600000000     0.859900000000     0.226800000000     0          
C198     C      0.128710000000     0.858860000000     0.169970000000     0          
H199     H      0.098100000000     0.838900000000     0.176100000000     0          
C200     C      0.270370000000     0.889960000000     0.255450000000     0          
H201     H      0.262700000000     0.859800000000     0.251900000000     0          
C202     C      0.292910000000     0.976950000000     0.268700000000     0          
C203     C      0.351600000000     0.850660000000     0.385790000000     0          
H204     H      0.348200000000     0.856700000000     0.414000000000     0          
C205     C      0.243990000000     0.919350000000     0.228640000000     0          
C206     C      0.307600000000     0.902580000000     0.287290000000     0          
C207     C      0.210150000000     0.920400000000     0.156480000000     0          
H208     H      0.237100000000     0.943400000000     0.151300000000     0          
C209     C      0.329260000000     0.878820000000     0.357660000000     0          
H210     H      0.311500000000     0.905100000000     0.366600000000     0          
C211     C      0.331800000000     0.870180000000     0.317270000000     0          
C212     C      0.380860000000     0.802840000000     0.332060000000     0          
H213     H      0.397100000000     0.776000000000     0.323200000000     0          
C214     C      0.254770000000     0.963610000000     0.236850000000     0          
O215     O      0.424620000000     0.709400000000     0.537260000000     0          
O216     O      0.108470000000     0.709640000000     0.940140000000     0          
O217     O      0.441100000000     0.667590000000     0.608660000000     0          
O218     O      0.059470000000     0.745640000000     0.891150000000     0          
O219     O      0.389460000000     0.631060000000     0.562030000000     0          
C220     C      0.398050000000     0.641820000000     0.597030000000     0          
C221     C      0.094280000000     0.717380000000     0.902780000000     0          
C222     C      0.364170000000     0.625110000000     0.632120000000     0          
C223     C      0.291600000000     0.595470000000     0.693990000000     0          
C224     C      0.141410000000     0.668310000000     0.803980000000     0          
H225     H      0.138600000000     0.674500000000     0.775700000000     0          
C226     C      0.120330000000     0.687480000000     0.872430000000     0          
C227     C      0.322730000000     0.593200000000     0.625400000000     0          
H228     H      0.317700000000     0.581100000000     0.599000000000     0          
C229     C      0.183650000000     0.552730000000     0.795400000000     0          
H230     H      0.162200000000     0.543500000000     0.818700000000     0          
C231     C      0.330380000000     0.626690000000     0.700780000000     0          
H232     H      0.331400000000     0.640100000000     0.726800000000     0          
C233     C      0.371290000000     0.641140000000     0.669970000000     0          
H234     H      0.401900000000     0.661100000000     0.676100000000     0          
C235     C      0.229630000000     0.610040000000     0.755450000000     0          
H236     H      0.237300000000     0.640200000000     0.751900000000     0          
C237     C      0.207090000000     0.523050000000     0.768700000000     0          
C238     C      0.148400000000     0.649340000000     0.885790000000     0          
H239     H      0.151800000000     0.643300000000     0.914000000000     0          
C240     C      0.256010000000     0.580650000000     0.728640000000     0          
C241     C      0.192400000000     0.597420000000     0.787290000000     0          
C242     C      0.289850000000     0.579600000000     0.656480000000     0          
H243     H      0.262900000000     0.556600000000     0.651300000000     0          
C244     C      0.170740000000     0.621180000000     0.857660000000     0          
H245     H      0.188500000000     0.594900000000     0.866600000000     0          
C246     C      0.168200000000     0.629820000000     0.817270000000     0          
C247     C      0.119140000000     0.697160000000     0.832060000000     0          
H248     H      0.102900000000     0.724000000000     0.823200000000     0          
C249     C      0.245230000000     0.536390000000     0.736850000000     0          
C250     C      0.211650000000     0.679310000000     0.514220000000     0          
C251     C      0.151260000000     0.686790000000     0.518250000000     0          
C252     C      0.152650000000     0.750110000000     0.486920000000     0          
C253     C      0.213570000000     0.746800000000     0.491480000000     0          
O254     O      0.924620000000     0.209400000000     0.037260000000     0          
O255     O      0.608470000000     0.209640000000     0.440140000000     0          
O256     O      0.941100000000     0.167590000000     0.108660000000     0          
O257     O      0.559470000000     0.245640000000     0.391150000000     0          
O258     O      0.889460000000     0.131060000000     0.062030000000     0          
C259     C      0.898050000000     0.141820000000     0.097030000000     0          
C260     C      0.594280000000     0.217380000000     0.402780000000     0          
C261     C      0.864170000000     0.125110000000     0.132120000000     0          
C262     C      0.791600000000     0.095470000000     0.193990000000     0          
C263     C      0.641410000000     0.168310000000     0.303980000000     0          
H264     H      0.638600000000     0.174500000000     0.275700000000     0          
C265     C      0.620330000000     0.187480000000     0.372430000000     0          
C266     C      0.822730000000     0.093200000000     0.125400000000     0          
H267     H      0.817700000000     0.081100000000     0.099000000000     0          
C268     C      0.683650000000     0.052730000000     0.295400000000     0          
H269     H      0.662200000000     0.043500000000     0.318700000000     0          
C270     C      0.830380000000     0.126690000000     0.200780000000     0          
H271     H      0.831400000000     0.140100000000     0.226800000000     0          
C272     C      0.871290000000     0.141140000000     0.169970000000     0          
H273     H      0.901900000000     0.161100000000     0.176100000000     0          
C274     C      0.729630000000     0.110040000000     0.255450000000     0          
H275     H      0.737300000000     0.140200000000     0.251900000000     0          
C276     C      0.707090000000     0.023050000000     0.268700000000     0          
C277     C      0.648400000000     0.149340000000     0.385790000000     0          
H278     H      0.651800000000     0.143300000000     0.414000000000     0          
C279     C      0.756010000000     0.080650000000     0.228640000000     0          
C280     C      0.692400000000     0.097420000000     0.287290000000     0          
C281     C      0.789850000000     0.079600000000     0.156480000000     0          
H282     H      0.762900000000     0.056600000000     0.151300000000     0          
C283     C      0.670740000000     0.121180000000     0.357660000000     0          
H284     H      0.688500000000     0.094900000000     0.366600000000     0          
C285     C      0.668200000000     0.129820000000     0.317270000000     0          
C286     C      0.619140000000     0.197160000000     0.332060000000     0          
H287     H      0.602900000000     0.224000000000     0.323200000000     0          
C288     C      0.745230000000     0.036390000000     0.236850000000     0          
O289     O      0.575380000000     0.709400000000     0.537260000000     0          
O290     O      0.891530000000     0.709640000000     0.940140000000     0          
O291     O      0.558900000000     0.667590000000     0.608660000000     0          
O292     O      0.940530000000     0.745640000000     0.891150000000     0          
O293     O      0.610540000000     0.631060000000     0.562030000000     0          
C294     C      0.601950000000     0.641820000000     0.597030000000     0          
C295     C      0.905720000000     0.717380000000     0.902780000000     0          
C296     C      0.635830000000     0.625110000000     0.632120000000     0          
C297     C      0.708400000000     0.595470000000     0.693990000000     0          
C298     C      0.858590000000     0.668310000000     0.803980000000     0          
H299     H      0.861400000000     0.674500000000     0.775700000000     0          
C300     C      0.879670000000     0.687480000000     0.872430000000     0          
C301     C      0.677270000000     0.593200000000     0.625400000000     0          
H302     H      0.682300000000     0.581100000000     0.599000000000     0          
C303     C      0.816350000000     0.552730000000     0.795400000000     0          
H304     H      0.837800000000     0.543500000000     0.818700000000     0          
C305     C      0.669620000000     0.626690000000     0.700780000000     0          
H306     H      0.668600000000     0.640100000000     0.726800000000     0          
C307     C      0.628710000000     0.641140000000     0.669970000000     0          
H308     H      0.598100000000     0.661100000000     0.676100000000     0          
C309     C      0.770370000000     0.610040000000     0.755450000000     0          
H310     H      0.762700000000     0.640200000000     0.751900000000     0          
C311     C      0.792910000000     0.523050000000     0.768700000000     0          
C312     C      0.851600000000     0.649340000000     0.885790000000     0          
H313     H      0.848200000000     0.643300000000     0.914000000000     0          
C314     C      0.743990000000     0.580650000000     0.728640000000     0          
C315     C      0.807600000000     0.597420000000     0.787290000000     0          
C316     C      0.710150000000     0.579600000000     0.656480000000     0          
H317     H      0.737100000000     0.556600000000     0.651300000000     0          
C318     C      0.829260000000     0.621180000000     0.857660000000     0          
H319     H      0.811500000000     0.594900000000     0.866600000000     0          
C320     C      0.831800000000     0.629820000000     0.817270000000     0          
C321     C      0.880860000000     0.697160000000     0.832060000000     0          
H322     H      0.897100000000     0.724000000000     0.823200000000     0          
C323     C      0.754770000000     0.536390000000     0.736850000000     0          
C324     C      0.788350000000     0.679310000000     0.514220000000     0          
C325     C      0.848740000000     0.686790000000     0.518250000000     0          
C326     C      0.847350000000     0.750110000000     0.486920000000     0          
C327     C      0.786430000000     0.746800000000     0.491480000000     0          
O328     O      0.075380000000     0.209400000000     0.037260000000     0          
O329     O      0.391530000000     0.209640000000     0.440140000000     0          
O330     O      0.058900000000     0.167590000000     0.108660000000     0          
O331     O      0.440530000000     0.245640000000     0.391150000000     0          
O332     O      0.110540000000     0.131060000000     0.062030000000     0          
C333     C      0.101950000000     0.141820000000     0.097030000000     0          
C334     C      0.405720000000     0.217380000000     0.402780000000     0          
C335     C      0.135830000000     0.125110000000     0.132120000000     0          
C336     C      0.208400000000     0.095470000000     0.193990000000     0          
C337     C      0.358590000000     0.168310000000     0.303980000000     0          
H338     H      0.361400000000     0.174500000000     0.275700000000     0          
C339     C      0.379670000000     0.187480000000     0.372430000000     0          
C340     C      0.177270000000     0.093200000000     0.125400000000     0          
H341     H      0.182300000000     0.081100000000     0.099000000000     0          
C342     C      0.316350000000     0.052730000000     0.295400000000     0          
H343     H      0.337800000000     0.043500000000     0.318700000000     0          
C344     C      0.169620000000     0.126690000000     0.200780000000     0          
H345     H      0.168600000000     0.140100000000     0.226800000000     0          
C346     C      0.128710000000     0.141140000000     0.169970000000     0          
H347     H      0.098100000000     0.161100000000     0.176100000000     0          
C348     C      0.270370000000     0.110040000000     0.255450000000     0          
H349     H      0.262700000000     0.140200000000     0.251900000000     0          
C350     C      0.292910000000     0.023050000000     0.268700000000     0          
C351     C      0.351600000000     0.149340000000     0.385790000000     0          
H352     H      0.348200000000     0.143300000000     0.414000000000     0          
C353     C      0.243990000000     0.080650000000     0.228640000000     0          
C354     C      0.307600000000     0.097420000000     0.287290000000     0          
C355     C      0.210150000000     0.079600000000     0.156480000000     0          
H356     H      0.237100000000     0.056600000000     0.151300000000     0          
C357     C      0.329260000000     0.121180000000     0.357660000000     0          
H358     H      0.311500000000     0.094900000000     0.366600000000     0          
C359     C      0.331800000000     0.129820000000     0.317270000000     0          
C360     C      0.380860000000     0.197160000000     0.332060000000     0          
H361     H      0.397100000000     0.224000000000     0.323200000000     0          
C362     C      0.254770000000     0.036390000000     0.236850000000     0          
C363     C      0.288350000000     0.179310000000     0.014220000000     0          
C364     C      0.348740000000     0.186790000000     0.018250000000     0          
C365     C      0.347350000000     0.250110000000     0.986920000000     0          
C366     C      0.286430000000     0.246800000000     0.991480000000     0          
O367     O      0.424620000000     0.290600000000     0.537260000000     0          
O368     O      0.108470000000     0.290360000000     0.940140000000     0          
O369     O      0.441100000000     0.332410000000     0.608660000000     0          
O370     O      0.059470000000     0.254360000000     0.891150000000     0          
O371     O      0.389460000000     0.368940000000     0.562030000000     0          
C372     C      0.398050000000     0.358180000000     0.597030000000     0          
C373     C      0.094280000000     0.282620000000     0.902780000000     0          
C374     C      0.364170000000     0.374890000000     0.632120000000     0          
C375     C      0.291600000000     0.404530000000     0.693990000000     0          
C376     C      0.141410000000     0.331690000000     0.803980000000     0          
H377     H      0.138600000000     0.325500000000     0.775700000000     0          
C378     C      0.120330000000     0.312520000000     0.872430000000     0          
C379     C      0.322730000000     0.406800000000     0.625400000000     0          
H380     H      0.317700000000     0.418900000000     0.599000000000     0          
C381     C      0.183650000000     0.447270000000     0.795400000000     0          
H382     H      0.162200000000     0.456500000000     0.818700000000     0          
C383     C      0.330380000000     0.373310000000     0.700780000000     0          
H384     H      0.331400000000     0.359900000000     0.726800000000     0          
C385     C      0.371290000000     0.358860000000     0.669970000000     0          
H386     H      0.401900000000     0.338900000000     0.676100000000     0          
C387     C      0.229630000000     0.389960000000     0.755450000000     0          
H388     H      0.237300000000     0.359800000000     0.751900000000     0          
C389     C      0.207090000000     0.476950000000     0.768700000000     0          
C390     C      0.148400000000     0.350660000000     0.885790000000     0          
H391     H      0.151800000000     0.356700000000     0.914000000000     0          
C392     C      0.256010000000     0.419350000000     0.728640000000     0          
C393     C      0.192400000000     0.402580000000     0.787290000000     0          
C394     C      0.289850000000     0.420400000000     0.656480000000     0          
H395     H      0.262900000000     0.443400000000     0.651300000000     0          
C396     C      0.170740000000     0.378820000000     0.857660000000     0          
H397     H      0.188500000000     0.405100000000     0.866600000000     0          
C398     C      0.168200000000     0.370180000000     0.817270000000     0          
C399     C      0.119140000000     0.302840000000     0.832060000000     0          
H400     H      0.102900000000     0.276000000000     0.823200000000     0          
C401     C      0.245230000000     0.463610000000     0.736850000000     0          
O402     O      0.924620000000     0.790600000000     0.037260000000     0          
O403     O      0.608470000000     0.790360000000     0.440140000000     0          
O404     O      0.941100000000     0.832410000000     0.108660000000     0          
O405     O      0.559470000000     0.754360000000     0.391150000000     0          
O406     O      0.889460000000     0.868940000000     0.062030000000     0          
C407     C      0.898050000000     0.858180000000     0.097030000000     0          
C408     C      0.594280000000     0.782620000000     0.402780000000     0          
C409     C      0.864170000000     0.874890000000     0.132120000000     0          
C410     C      0.791600000000     0.904530000000     0.193990000000     0          
C411     C      0.641410000000     0.831690000000     0.303980000000     0          
H412     H      0.638600000000     0.825500000000     0.275700000000     0          
C413     C      0.620330000000     0.812520000000     0.372430000000     0          
C414     C      0.822730000000     0.906800000000     0.125400000000     0          
H415     H      0.817700000000     0.918900000000     0.099000000000     0          
C416     C      0.683650000000     0.947270000000     0.295400000000     0          
H417     H      0.662200000000     0.956500000000     0.318700000000     0          
C418     C      0.830380000000     0.873310000000     0.200780000000     0          
H419     H      0.831400000000     0.859900000000     0.226800000000     0          
C420     C      0.871290000000     0.858860000000     0.169970000000     0          
H421     H      0.901900000000     0.838900000000     0.176100000000     0          
C422     C      0.729630000000     0.889960000000     0.255450000000     0          
H423     H      0.737300000000     0.859800000000     0.251900000000     0          
C424     C      0.707090000000     0.976950000000     0.268700000000     0          
C425     C      0.648400000000     0.850660000000     0.385790000000     0          
H426     H      0.651800000000     0.856700000000     0.414000000000     0          
C427     C      0.756010000000     0.919350000000     0.228640000000     0          
C428     C      0.692400000000     0.902580000000     0.287290000000     0          
C429     C      0.789850000000     0.920400000000     0.156480000000     0          
H430     H      0.762900000000     0.943400000000     0.151300000000     0          
C431     C      0.670740000000     0.878820000000     0.357660000000     0          
H432     H      0.688500000000     0.905100000000     0.366600000000     0          
C433     C      0.668200000000     0.870180000000     0.317270000000     0          
C434     C      0.619140000000     0.802840000000     0.332060000000     0          
H435     H      0.602900000000     0.776000000000     0.323200000000     0          
C436     C      0.745230000000     0.963610000000     0.236850000000     0          
C437     C      0.711650000000     0.820690000000     0.014220000000     0          
C438     C      0.651260000000     0.813210000000     0.018250000000     0          
C439     C      0.652650000000     0.749890000000     0.986920000000     0          
C440     C      0.713570000000     0.753200000000     0.991480000000     0          
O441     O      0.424620000000     0.709400000000     0.462740000000     0          
O442     O      0.108470000000     0.709640000000     0.059860000000     0          
O443     O      0.441100000000     0.667590000000     0.391340000000     0          
O444     O      0.059470000000     0.745640000000     0.108850000000     0          
O445     O      0.389460000000     0.631060000000     0.437970000000     0          
C446     C      0.398050000000     0.641820000000     0.402970000000     0          
C447     C      0.094280000000     0.717380000000     0.097220000000     0          
C448     C      0.364170000000     0.625110000000     0.367880000000     0          
C449     C      0.291600000000     0.595470000000     0.306010000000     0          
C450     C      0.141410000000     0.668310000000     0.196020000000     0          
H451     H      0.138600000000     0.674500000000     0.224300000000     0          
C452     C      0.120330000000     0.687480000000     0.127570000000     0          
C453     C      0.322730000000     0.593200000000     0.374600000000     0          
H454     H      0.317700000000     0.581100000000     0.401000000000     0          
C455     C      0.183650000000     0.552730000000     0.204600000000     0          
H456     H      0.162200000000     0.543500000000     0.181300000000     0          
C457     C      0.330380000000     0.626690000000     0.299220000000     0          
H458     H      0.331400000000     0.640100000000     0.273200000000     0          
C459     C      0.371290000000     0.641140000000     0.330030000000     0          
H460     H      0.401900000000     0.661100000000     0.323900000000     0          
C461     C      0.229630000000     0.610040000000     0.244550000000     0          
H462     H      0.237300000000     0.640200000000     0.248100000000     0          
C463     C      0.207090000000     0.523050000000     0.231300000000     0          
C464     C      0.148400000000     0.649340000000     0.114210000000     0          
H465     H      0.151800000000     0.643300000000     0.086000000000     0          
C466     C      0.256010000000     0.580650000000     0.271360000000     0          
C467     C      0.192400000000     0.597420000000     0.212710000000     0          
C468     C      0.289850000000     0.579600000000     0.343520000000     0          
H469     H      0.262900000000     0.556600000000     0.348700000000     0          
C470     C      0.170740000000     0.621180000000     0.142340000000     0          
H471     H      0.188500000000     0.594900000000     0.133400000000     0          
C472     C      0.168200000000     0.629820000000     0.182730000000     0          
C473     C      0.119140000000     0.697160000000     0.167940000000     0          
H474     H      0.102900000000     0.724000000000     0.176800000000     0          
C475     C      0.245230000000     0.536390000000     0.263150000000     0          
O476     O      0.924620000000     0.209400000000     0.962740000000     0          
O477     O      0.608470000000     0.209640000000     0.559860000000     0          
O478     O      0.941100000000     0.167590000000     0.891340000000     0          
O479     O      0.559470000000     0.245640000000     0.608850000000     0          
O480     O      0.889460000000     0.131060000000     0.937970000000     0          
C481     C      0.898050000000     0.141820000000     0.902970000000     0          
C482     C      0.594280000000     0.217380000000     0.597220000000     0          
C483     C      0.864170000000     0.125110000000     0.867880000000     0          
C484     C      0.791600000000     0.095470000000     0.806010000000     0          
C485     C      0.641410000000     0.168310000000     0.696020000000     0          
H486     H      0.638600000000     0.174500000000     0.724300000000     0          
C487     C      0.620330000000     0.187480000000     0.627570000000     0          
C488     C      0.822730000000     0.093200000000     0.874600000000     0          
H489     H      0.817700000000     0.081100000000     0.901000000000     0          
C490     C      0.683650000000     0.052730000000     0.704600000000     0          
H491     H      0.662200000000     0.043500000000     0.681300000000     0          
C492     C      0.830380000000     0.126690000000     0.799220000000     0          
H493     H      0.831400000000     0.140100000000     0.773200000000     0          
C494     C      0.871290000000     0.141140000000     0.830030000000     0          
H495     H      0.901900000000     0.161100000000     0.823900000000     0          
C496     C      0.729630000000     0.110040000000     0.744550000000     0          
H497     H      0.737300000000     0.140200000000     0.748100000000     0          
C498     C      0.707090000000     0.023050000000     0.731300000000     0          
C499     C      0.648400000000     0.149340000000     0.614210000000     0          
H500     H      0.651800000000     0.143300000000     0.586000000000     0          
C501     C      0.756010000000     0.080650000000     0.771360000000     0          
C502     C      0.692400000000     0.097420000000     0.712710000000     0          
C503     C      0.789850000000     0.079600000000     0.843520000000     0          
H504     H      0.762900000000     0.056600000000     0.848700000000     0          
C505     C      0.670740000000     0.121180000000     0.642340000000     0          
H506     H      0.688500000000     0.094900000000     0.633400000000     0          
C507     C      0.668200000000     0.129820000000     0.682730000000     0          
C508     C      0.619140000000     0.197160000000     0.667940000000     0          
H509     H      0.602900000000     0.224000000000     0.676800000000     0          
C510     C      0.745230000000     0.036390000000     0.763150000000     0          
C511     C      0.711650000000     0.179310000000     0.985780000000     0          
C512     C      0.651260000000     0.186790000000     0.981750000000     0          
C513     C      0.652650000000     0.250110000000     0.013080000000     0          
C514     C      0.713570000000     0.246800000000     0.008520000000     0          
O515     O      0.575380000000     0.290600000000     0.462740000000     0          
O516     O      0.891530000000     0.290360000000     0.059860000000     0          
O517     O      0.558900000000     0.332410000000     0.391340000000     0          
O518     O      0.940530000000     0.254360000000     0.108850000000     0          
O519     O      0.610540000000     0.368940000000     0.437970000000     0          
C520     C      0.601950000000     0.358180000000     0.402970000000     0          
C521     C      0.905720000000     0.282620000000     0.097220000000     0          
C522     C      0.635830000000     0.374890000000     0.367880000000     0          
C523     C      0.708400000000     0.404530000000     0.306010000000     0          
C524     C      0.858590000000     0.331690000000     0.196020000000     0          
H525     H      0.861400000000     0.325500000000     0.224300000000     0          
C526     C      0.879670000000     0.312520000000     0.127570000000     0          
C527     C      0.677270000000     0.406800000000     0.374600000000     0          
H528     H      0.682300000000     0.418900000000     0.401000000000     0          
C529     C      0.816350000000     0.447270000000     0.204600000000     0          
H530     H      0.837800000000     0.456500000000     0.181300000000     0          
C531     C      0.669620000000     0.373310000000     0.299220000000     0          
H532     H      0.668600000000     0.359900000000     0.273200000000     0          
C533     C      0.628710000000     0.358860000000     0.330030000000     0          
H534     H      0.598100000000     0.338900000000     0.323900000000     0          
C535     C      0.770370000000     0.389960000000     0.244550000000     0          
H536     H      0.762700000000     0.359800000000     0.248100000000     0          
C537     C      0.792910000000     0.476950000000     0.231300000000     0          
C538     C      0.851600000000     0.350660000000     0.114210000000     0          
H539     H      0.848200000000     0.356700000000     0.086000000000     0          
C540     C      0.743990000000     0.419350000000     0.271360000000     0          
C541     C      0.807600000000     0.402580000000     0.212710000000     0          
C542     C      0.710150000000     0.420400000000     0.343520000000     0          
H543     H      0.737100000000     0.443400000000     0.348700000000     0          
C544     C      0.829260000000     0.378820000000     0.142340000000     0          
H545     H      0.811500000000     0.405100000000     0.133400000000     0          
C546     C      0.831800000000     0.370180000000     0.182730000000     0          
C547     C      0.880860000000     0.302840000000     0.167940000000     0          
H548     H      0.897100000000     0.276000000000     0.176800000000     0          
C549     C      0.754770000000     0.463610000000     0.263150000000     0          
C550     C      0.788350000000     0.320690000000     0.485780000000     0          
C551     C      0.848740000000     0.313210000000     0.481750000000     0          
C552     C      0.847350000000     0.249890000000     0.513080000000     0          
C553     C      0.786430000000     0.253200000000     0.508520000000     0          
O554     O      0.075380000000     0.790600000000     0.962740000000     0          
O555     O      0.391530000000     0.790360000000     0.559860000000     0          
O556     O      0.058900000000     0.832410000000     0.891340000000     0          
O557     O      0.440530000000     0.754360000000     0.608850000000     0          
O558     O      0.110540000000     0.868940000000     0.937970000000     0          
C559     C      0.101950000000     0.858180000000     0.902970000000     0          
C560     C      0.405720000000     0.782620000000     0.597220000000     0          
C561     C      0.135830000000     0.874890000000     0.867880000000     0          
C562     C      0.208400000000     0.904530000000     0.806010000000     0          
C563     C      0.358590000000     0.831690000000     0.696020000000     0          
H564     H      0.361400000000     0.825500000000     0.724300000000     0          
C565     C      0.379670000000     0.812520000000     0.627570000000     0          
C566     C      0.177270000000     0.906800000000     0.874600000000     0          
H567     H      0.182300000000     0.918900000000     0.901000000000     0          
C568     C      0.316350000000     0.947270000000     0.704600000000     0          
H569     H      0.337800000000     0.956500000000     0.681300000000     0          
C570     C      0.169620000000     0.873310000000     0.799220000000     0          
H571     H      0.168600000000     0.859900000000     0.773200000000     0          
C572     C      0.128710000000     0.858860000000     0.830030000000     0          
H573     H      0.098100000000     0.838900000000     0.823900000000     0          
C574     C      0.270370000000     0.889960000000     0.744550000000     0          
H575     H      0.262700000000     0.859800000000     0.748100000000     0          
C576     C      0.292910000000     0.976950000000     0.731300000000     0          
C577     C      0.351600000000     0.850660000000     0.614210000000     0          
H578     H      0.348200000000     0.856700000000     0.586000000000     0          
C579     C      0.243990000000     0.919350000000     0.771360000000     0          
C580     C      0.307600000000     0.902580000000     0.712710000000     0          
C581     C      0.210150000000     0.920400000000     0.843520000000     0          
H582     H      0.237100000000     0.943400000000     0.848700000000     0          
C583     C      0.329260000000     0.878820000000     0.642340000000     0          
H584     H      0.311500000000     0.905100000000     0.633400000000     0          
C585     C      0.331800000000     0.870180000000     0.682730000000     0          
C586     C      0.380860000000     0.802840000000     0.667940000000     0          
H587     H      0.397100000000     0.776000000000     0.676800000000     0          
C588     C      0.254770000000     0.963610000000     0.763150000000     0          
C589     C      0.288350000000     0.820690000000     0.985780000000     0          
C590     C      0.348740000000     0.813210000000     0.981750000000     0          
C591     C      0.347350000000     0.749890000000     0.013080000000     0          
C592     C      0.286430000000     0.753200000000     0.008520000000     0          
Zr593    Zr     0.500000000000     0.289690000000     0.425270000000     0          
O594     O      0.500000000000     0.233550000000     0.463720000000     0          
O595     O      0.500000000000     0.348120000000     0.463390000000     0          
Zr596    Zr     0.000000000000     0.789690000000     0.925270000000     0          
O597     O      0.000000000000     0.733550000000     0.963720000000     0          
O598     O      0.000000000000     0.848120000000     0.963390000000     0          
Zr599    Zr     0.500000000000     0.710310000000     0.425270000000     0          
O600     O      0.500000000000     0.766450000000     0.463720000000     0          
O601     O      0.500000000000     0.651880000000     0.463390000000     0          
Zr602    Zr     0.000000000000     0.210310000000     0.925270000000     0          
O603     O      0.000000000000     0.266450000000     0.963720000000     0          
O604     O      0.000000000000     0.151880000000     0.963390000000     0          
Zr605    Zr     0.500000000000     0.289690000000     0.574730000000     0          
O606     O      0.500000000000     0.233550000000     0.536280000000     0          
O607     O      0.500000000000     0.348120000000     0.536610000000     0          
Zr608    Zr     0.000000000000     0.789690000000     0.074730000000     0          
O609     O      0.000000000000     0.733550000000     0.036280000000     0          
O610     O      0.000000000000     0.848120000000     0.036610000000     0          
Zr611    Zr     0.500000000000     0.710310000000     0.574730000000     0          
O612     O      0.500000000000     0.766450000000     0.536280000000     0          
O613     O      0.500000000000     0.651880000000     0.536610000000     0          
Zr614    Zr     0.000000000000     0.210310000000     0.074730000000     0          
O615     O      0.000000000000     0.266450000000     0.036280000000     0          
O616     O      0.000000000000     0.151880000000     0.036610000000     0          
Zr617    Zr     0.422550000000     0.347230000000     0.500000000000     0          
Zr618    Zr     0.423060000000     0.233120000000     0.500000000000     0          
O619     O      0.328670000000     0.334320000000     0.500000000000     0          
O620     O      0.330260000000     0.246060000000     0.500000000000     0          
C621     C      0.315520000000     0.290470000000     0.500000000000     0          
C622     C      0.249900000000     0.288570000000     0.500000000000     0          
C623     C      0.114350000000     0.282470000000     0.500000000000     0          
C624     C      0.048400000000     0.282060000000     0.500000000000     0          
C625     C      0.031260000000     0.326310000000     0.500000000000     0          
C626     C      0.030470000000     0.238460000000     0.500000000000     0          
Zr627    Zr     0.922550000000     0.847230000000     0.000000000000     0          
Zr628    Zr     0.923060000000     0.733120000000     0.000000000000     0          
O629     O      0.828670000000     0.834320000000     0.000000000000     0          
O630     O      0.830260000000     0.746060000000     0.000000000000     0          
C631     C      0.815520000000     0.790470000000     0.000000000000     0          
C632     C      0.749900000000     0.788570000000     0.000000000000     0          
C633     C      0.614350000000     0.782470000000     0.000000000000     0          
C634     C      0.548400000000     0.782060000000     0.000000000000     0          
C635     C      0.531260000000     0.826310000000     0.000000000000     0          
C636     C      0.530470000000     0.738460000000     0.000000000000     0          
Zr637    Zr     0.577450000000     0.652770000000     0.500000000000     0          
Zr638    Zr     0.576940000000     0.766880000000     0.500000000000     0          
O639     O      0.671330000000     0.665680000000     0.500000000000     0          
O640     O      0.669740000000     0.753940000000     0.500000000000     0          
C641     C      0.684480000000     0.709530000000     0.500000000000     0          
C642     C      0.750100000000     0.711430000000     0.500000000000     0          
C643     C      0.885650000000     0.717530000000     0.500000000000     0          
C644     C      0.951600000000     0.717940000000     0.500000000000     0          
C645     C      0.968740000000     0.673690000000     0.500000000000     0          
C646     C      0.969530000000     0.761540000000     0.500000000000     0          
Zr647    Zr     0.077450000000     0.152770000000     0.000000000000     0          
Zr648    Zr     0.076940000000     0.266880000000     0.000000000000     0          
O649     O      0.171330000000     0.165680000000     0.000000000000     0          
O650     O      0.169740000000     0.253940000000     0.000000000000     0          
C651     C      0.184480000000     0.209530000000     0.000000000000     0          
C652     C      0.250100000000     0.211430000000     0.000000000000     0          
C653     C      0.385650000000     0.217530000000     0.000000000000     0          
C654     C      0.451600000000     0.217940000000     0.000000000000     0          
C655     C      0.468740000000     0.173690000000     0.000000000000     0          
C656     C      0.469530000000     0.261540000000     0.000000000000     0          
Zr657    Zr     0.577450000000     0.347230000000     0.500000000000     0          
Zr658    Zr     0.576940000000     0.233120000000     0.500000000000     0          
O659     O      0.671330000000     0.334320000000     0.500000000000     0          
O660     O      0.669740000000     0.246060000000     0.500000000000     0          
C661     C      0.684480000000     0.290470000000     0.500000000000     0          
C662     C      0.750100000000     0.288570000000     0.500000000000     0          
C663     C      0.885650000000     0.282470000000     0.500000000000     0          
C664     C      0.951600000000     0.282060000000     0.500000000000     0          
C665     C      0.968740000000     0.326310000000     0.500000000000     0          
C666     C      0.969530000000     0.238460000000     0.500000000000     0          
Zr667    Zr     0.077450000000     0.847230000000     0.000000000000     0          
Zr668    Zr     0.076940000000     0.733120000000     0.000000000000     0          
O669     O      0.171330000000     0.834320000000     0.000000000000     0          
O670     O      0.169740000000     0.746060000000     0.000000000000     0          
C671     C      0.184480000000     0.790470000000     0.000000000000     0          
C672     C      0.250100000000     0.788570000000     0.000000000000     0          
C673     C      0.385650000000     0.782470000000     0.000000000000     0          
C674     C      0.451600000000     0.782060000000     0.000000000000     0          
C675     C      0.468740000000     0.826310000000     0.000000000000     0          
C676     C      0.469530000000     0.738460000000     0.000000000000     0          
Zr677    Zr     0.422550000000     0.652770000000     0.500000000000     0          
Zr678    Zr     0.423060000000     0.766880000000     0.500000000000     0          
O679     O      0.328670000000     0.665680000000     0.500000000000     0          
O680     O      0.330260000000     0.753940000000     0.500000000000     0          
C681     C      0.315520000000     0.709530000000     0.500000000000     0          
C682     C      0.249900000000     0.711430000000     0.500000000000     0          
C683     C      0.114350000000     0.717530000000     0.500000000000     0          
C684     C      0.048400000000     0.717940000000     0.500000000000     0          
C685     C      0.031260000000     0.673690000000     0.500000000000     0          
C686     C      0.030470000000     0.761540000000     0.500000000000     0          
Zr687    Zr     0.922550000000     0.152770000000     0.000000000000     0          
Zr688    Zr     0.923060000000     0.266880000000     0.000000000000     0          
O689     O      0.828670000000     0.165680000000     0.000000000000     0          
O690     O      0.830260000000     0.253940000000     0.000000000000     0          
C691     C      0.815520000000     0.209530000000     0.000000000000     0          
C692     C      0.749900000000     0.211430000000     0.000000000000     0          
C693     C      0.614350000000     0.217530000000     0.000000000000     0          
C694     C      0.548400000000     0.217940000000     0.000000000000     0          
C695     C      0.531260000000     0.173690000000     0.000000000000     0          
C696     C      0.530470000000     0.261540000000     0.000000000000     0          
N697     N      0.266680000000     0.500000000000     0.282870000000     0          
H698     H      0.290000000000     0.500000000000     0.304300000000     0          
N699     N      0.766680000000     0.000000000000     0.782870000000     0          
H700     H      0.790000000000     0.000000000000     0.804300000000     0          
N701     N      0.733320000000     0.500000000000     0.282870000000     0          
H702     H      0.710000000000     0.500000000000     0.304300000000     0          
N703     N      0.233320000000     0.000000000000     0.782870000000     0          
H704     H      0.210000000000     0.000000000000     0.804300000000     0          
N705     N      0.733320000000     0.500000000000     0.717130000000     0          
H706     H      0.710000000000     0.500000000000     0.695700000000     0          
N707     N      0.233320000000     0.000000000000     0.217130000000     0          
H708     H      0.210000000000     0.000000000000     0.195700000000     0          
N709     N      0.266680000000     0.500000000000     0.717130000000     0          
H710     H      0.290000000000     0.500000000000     0.695700000000     0          
N711     N      0.766680000000     0.000000000000     0.217130000000     0          
H712     H      0.790000000000     0.000000000000     0.195700000000     0          
H713     H      0.769140000000     0.646290000000     0.522640000000     0          
H714     H      0.876110000000     0.665620000000     0.539520000000     0          
H715     H      0.867320000000     0.780180000000     0.472090000000     0          
H716     H      0.757630000000     0.776920000000     0.488130000000     0          
H717     H      0.230860000000     0.646290000000     0.522640000000     0          
H718     H      0.123890000000     0.665620000000     0.539520000000     0          
H719     H      0.132680000000     0.780180000000     0.472090000000     0          
H720     H      0.242370000000     0.776920000000     0.488130000000     0          
H721     H      0.769140000000     0.353710000000     0.477360000000     0          
H722     H      0.876110000000     0.334380000000     0.460480000000     0          
H723     H      0.867320000000     0.219820000000     0.527910000000     0          
H724     H      0.757630000000     0.223080000000     0.511870000000     0          
H725     H      0.230860000000     0.353710000000     0.477360000000     0          
H726     H      0.123890000000     0.334380000000     0.460480000000     0          
H727     H      0.132680000000     0.219820000000     0.527910000000     0          
H728     H      0.242370000000     0.223080000000     0.511870000000     0          
H729     H      0.367320000000     0.280180000000     0.972090000000     0          
H730     H      0.257630000000     0.276920000000     0.988130000000     0          
H731     H      0.730860000000     0.146290000000     0.977360000000     0          
H732     H      0.623890000000     0.165620000000     0.960480000000     0          
H733     H      0.269140000000     0.146290000000     0.022640000000     0          
H734     H      0.376110000000     0.165620000000     0.039520000000     0          
H735     H      0.632680000000     0.280180000000     0.027910000000     0          
H736     H      0.742370000000     0.276920000000     0.011870000000     0          
H737     H      0.632680000000     0.719820000000     0.972090000000     0          
H738     H      0.742370000000     0.723080000000     0.988130000000     0          
H739     H      0.269140000000     0.853710000000     0.977360000000     0          
H740     H      0.376110000000     0.834380000000     0.960480000000     0          
H741     H      0.367320000000     0.719820000000     0.027910000000     0          
H742     H      0.257630000000     0.723080000000     0.011870000000     0          
H743     H      0.730860000000     0.853710000000     0.022640000000     0          
H744     H      0.623890000000     0.834380000000     0.039520000000     0          
C745     C      0.573590000000     0.858870000000     0.997140000000     0          
H746     H      0.564720000000     0.711400000000     0.000000000000     0          
H747     H      0.433900000000     0.852950000000     0.000000000000     0          
C748     C      0.427790000000     0.705480000000     0.002860000000     0          
H749     H      0.579310000000     0.868660000000     0.963900000000     0          
H750     H      0.617200000000     0.846310000000     0.009570000000     0          
H751     H      0.558920000000     0.888310000000     0.015610000000     0          
H752     H      0.448760000000     0.675430000000     0.017040000000     0          
H753     H      0.410760000000     0.697170000000     0.971150000000     0          
H754     H      0.389660000000     0.716850000000     0.022720000000     0          
C755     C      0.427700000000     0.141760000000     0.999510000000     0          
H756     H      0.435280000000     0.288600000000     0.000000000000     0          
H757     H      0.566100000000     0.147050000000     0.000000000000     0          
C758     C      0.570920000000     0.293880000000     0.000490000000     0          
H759     H      0.446900000000     0.110990000000     0.013540000000     0          
H760     H      0.413990000000     0.134930000000     0.966740000000     0          
H761     H      0.387670000000     0.152510000000     0.017820000000     0          
H762     H      0.580260000000     0.304890000000     0.967990000000     0          
H763     H      0.613270000000     0.281520000000     0.015010000000     0          
H764     H      0.553260000000     0.322450000000     0.018900000000     0          
H765     H      0.933900000000     0.647050000000     0.500000000000     0          
C766     C      0.925250000000     0.799380000000     0.499300000000     0          
C767     C      0.923870000000     0.363740000000     0.499300000000     0          
H768     H      0.935280000000     0.211400000000     0.500000000000     0          
H769     H      0.066100000000     0.352950000000     0.500000000000     0          
C770     C      0.074750000000     0.200620000000     0.500700000000     0          
C771     C      0.076130000000     0.636260000000     0.500700000000     0          
H772     H      0.064720000000     0.788600000000     0.500000000000     0          
H773     H      0.882120000000     0.788450000000     0.513730000000     0          
H774     H      0.916960000000     0.809720000000     0.466470000000     0          
H775     H      0.943880000000     0.828000000000     0.517180000000     0          
H776     H      0.880830000000     0.352360000000     0.513540000000     0          
H777     H      0.915630000000     0.374150000000     0.466480000000     0          
H778     H      0.941900000000     0.392440000000     0.517350000000     0          
H779     H      0.088320000000     0.192270000000     0.468210000000     0          
H780     H      0.053480000000     0.171000000000     0.515480000000     0          
H781     H      0.115240000000     0.210550000000     0.518930000000     0          
H782     H      0.090060000000     0.628180000000     0.468230000000     0          
H783     H      0.055250000000     0.606390000000     0.515290000000     0          
H784     H      0.116330000000     0.646480000000     0.519100000000     0          


