data_NUSXAC

_audit_creation_method RASPA-1.0
_audit_creation_date 2020-11-2
_audit_author_name 'Rocio Bueno-Perez'

_cell_length_a    38.4265
_cell_length_b    38.4265
_cell_length_c    38.4265
_cell_angle_alpha 90
_cell_angle_beta  90
_cell_angle_gamma 90
_cell_volume      56740.4

_symmetry_cell_setting          cubic
_symmetry_space_group_name_Hall 'P 1'
_symmetry_space_group_name_H-M  'P 1'
_symmetry_Int_Tables_number     1

_symmetry_equiv_pos_as_xyz 'x,y,z'

loop_
_atom_site_label
_atom_site_type_symbol
_atom_site_fract_x
_atom_site_fract_y
_atom_site_fract_z
_atom_site_charge
C2       C      0.250980000000     0.426690000000     0.028100000000     0          
C3       C      0.252850000000     0.391360000000     0.017440000000     0          
H1       H      0.253900000000     0.371500000000     0.032200000000     0          
C4       C      0.279100000000     0.377720000000     0.135350000000     0          
H2       H      0.299400000000     0.373400000000     0.148800000000     0          
C6       C      0.279500000000     0.403740000000     0.109490000000     0          
H3       H      0.300000000000     0.417000000000     0.105400000000     0          
O6?      O      0.271400000000     0.321370000000     0.181000000000     0          
Zr2?     Zr     0.284620000000     0.284620000000     0.221070000000     0          
Fe1      Fe     0.250000000000     0.500000000000     0.000000000000     0          
O1       O      0.282330000000     0.282330000000     0.282330000000     0          
C1       C      0.250000000000     0.409580000000     0.090420000000     0          
C5       C      0.250000000000     0.358970000000     0.141030000000     0          
C7       C      0.250000000000     0.436980000000     0.063020000000     0          
C8       C      0.250000000000     0.331450000000     0.168550000000     0          
N1       N      0.250080000000     0.448410000000     0.000000000000     0          
O7?      O      0.247580000000     0.315900000000     0.247580000000     0          
C2       C      0.573310000000     0.250980000000     0.028100000000     0          
C3       C      0.608640000000     0.252850000000     0.017440000000     0          
H1       H      0.628500000000     0.253900000000     0.032200000000     0          
C4       C      0.622280000000     0.279100000000     0.135350000000     0          
H2       H      0.626600000000     0.299400000000     0.148800000000     0          
C6       C      0.596260000000     0.279500000000     0.109490000000     0          
H3       H      0.583000000000     0.300000000000     0.105400000000     0          
O6?      O      0.678630000000     0.271400000000     0.181000000000     0          
Zr2?     Zr     0.715380000000     0.284620000000     0.221070000000     0          
Fe1      Fe     0.500000000000     0.250000000000     0.000000000000     0          
O1       O      0.717670000000     0.282330000000     0.282330000000     0          
C1       C      0.590420000000     0.250000000000     0.090420000000     0          
C5       C      0.641030000000     0.250000000000     0.141030000000     0          
C7       C      0.563020000000     0.250000000000     0.063020000000     0          
C8       C      0.668550000000     0.250000000000     0.168550000000     0          
N1       N      0.551590000000     0.250080000000     0.000000000000     0          
O7?      O      0.684100000000     0.247580000000     0.247580000000     0          
C2       C      0.749020000000     0.573310000000     0.028100000000     0          
C3       C      0.747150000000     0.608640000000     0.017440000000     0          
H1       H      0.746100000000     0.628500000000     0.032200000000     0          
C4       C      0.720900000000     0.622280000000     0.135350000000     0          
H2       H      0.700600000000     0.626600000000     0.148800000000     0          
C6       C      0.720500000000     0.596260000000     0.109490000000     0          
H3       H      0.700000000000     0.583000000000     0.105400000000     0          
O6?      O      0.728600000000     0.678630000000     0.181000000000     0          
Zr2?     Zr     0.715380000000     0.715380000000     0.221070000000     0          
Fe1      Fe     0.750000000000     0.500000000000     0.000000000000     0          
O1       O      0.717670000000     0.717670000000     0.282330000000     0          
C1       C      0.750000000000     0.590420000000     0.090420000000     0          
C5       C      0.750000000000     0.641030000000     0.141030000000     0          
C7       C      0.750000000000     0.563020000000     0.063020000000     0          
C8       C      0.750000000000     0.668550000000     0.168550000000     0          
N1       N      0.749920000000     0.551590000000     0.000000000000     0          
O7?      O      0.752420000000     0.684100000000     0.247580000000     0          
C2       C      0.426690000000     0.749020000000     0.028100000000     0          
C3       C      0.391360000000     0.747150000000     0.017440000000     0          
H1       H      0.371500000000     0.746100000000     0.032200000000     0          
C4       C      0.377720000000     0.720900000000     0.135350000000     0          
H2       H      0.373400000000     0.700600000000     0.148800000000     0          
C6       C      0.403740000000     0.720500000000     0.109490000000     0          
H3       H      0.417000000000     0.700000000000     0.105400000000     0          
O6?      O      0.321370000000     0.728600000000     0.181000000000     0          
Zr2?     Zr     0.284620000000     0.715380000000     0.221070000000     0          
Fe1      Fe     0.500000000000     0.750000000000     0.000000000000     0          
O1       O      0.282330000000     0.717670000000     0.282330000000     0          
C1       C      0.409580000000     0.750000000000     0.090420000000     0          
C5       C      0.358970000000     0.750000000000     0.141030000000     0          
C7       C      0.436980000000     0.750000000000     0.063020000000     0          
C8       C      0.331450000000     0.750000000000     0.168550000000     0          
N1       N      0.448410000000     0.749920000000     0.000000000000     0          
O7?      O      0.315900000000     0.752420000000     0.247580000000     0          
C2       C      0.250980000000     0.573310000000     0.971900000000     0          
C3       C      0.252850000000     0.608640000000     0.982560000000     0          
H1       H      0.253900000000     0.628500000000     0.967800000000     0          
C4       C      0.279100000000     0.622280000000     0.864650000000     0          
H2       H      0.299400000000     0.626600000000     0.851200000000     0          
C6       C      0.279500000000     0.596260000000     0.890510000000     0          
H3       H      0.300000000000     0.583000000000     0.894600000000     0          
O6?      O      0.271400000000     0.678630000000     0.819000000000     0          
Zr2?     Zr     0.284620000000     0.715380000000     0.778930000000     0          
O1       O      0.282330000000     0.717670000000     0.717670000000     0          
C1       C      0.250000000000     0.590420000000     0.909580000000     0          
C5       C      0.250000000000     0.641030000000     0.858970000000     0          
C7       C      0.250000000000     0.563020000000     0.936980000000     0          
C8       C      0.250000000000     0.668550000000     0.831450000000     0          
N1       N      0.250080000000     0.551590000000     0.000000000000     0          
O7?      O      0.247580000000     0.684100000000     0.752420000000     0          
C2       C      0.426690000000     0.250980000000     0.971900000000     0          
C3       C      0.391360000000     0.252850000000     0.982560000000     0          
H1       H      0.371500000000     0.253900000000     0.967800000000     0          
C4       C      0.377720000000     0.279100000000     0.864650000000     0          
H2       H      0.373400000000     0.299400000000     0.851200000000     0          
C6       C      0.403740000000     0.279500000000     0.890510000000     0          
H3       H      0.417000000000     0.300000000000     0.894600000000     0          
O6?      O      0.321370000000     0.271400000000     0.819000000000     0          
Zr2?     Zr     0.284620000000     0.284620000000     0.778930000000     0          
O1       O      0.282330000000     0.282330000000     0.717670000000     0          
C1       C      0.409580000000     0.250000000000     0.909580000000     0          
C5       C      0.358970000000     0.250000000000     0.858970000000     0          
C7       C      0.436980000000     0.250000000000     0.936980000000     0          
C8       C      0.331450000000     0.250000000000     0.831450000000     0          
N1       N      0.448410000000     0.250080000000     0.000000000000     0          
O7?      O      0.315900000000     0.247580000000     0.752420000000     0          
C2       C      0.749020000000     0.426690000000     0.971900000000     0          
C3       C      0.747150000000     0.391360000000     0.982560000000     0          
H1       H      0.746100000000     0.371500000000     0.967800000000     0          
C4       C      0.720900000000     0.377720000000     0.864650000000     0          
H2       H      0.700600000000     0.373400000000     0.851200000000     0          
C6       C      0.720500000000     0.403740000000     0.890510000000     0          
H3       H      0.700000000000     0.417000000000     0.894600000000     0          
O6?      O      0.728600000000     0.321370000000     0.819000000000     0          
Zr2?     Zr     0.715380000000     0.284620000000     0.778930000000     0          
O1       O      0.717670000000     0.282330000000     0.717670000000     0          
C1       C      0.750000000000     0.409580000000     0.909580000000     0          
C5       C      0.750000000000     0.358970000000     0.858970000000     0          
C7       C      0.750000000000     0.436980000000     0.936980000000     0          
C8       C      0.750000000000     0.331450000000     0.831450000000     0          
N1       N      0.749920000000     0.448410000000     0.000000000000     0          
O7?      O      0.752420000000     0.315900000000     0.752420000000     0          
C2       C      0.573310000000     0.749020000000     0.971900000000     0          
C3       C      0.608640000000     0.747150000000     0.982560000000     0          
H1       H      0.628500000000     0.746100000000     0.967800000000     0          
C4       C      0.622280000000     0.720900000000     0.864650000000     0          
H2       H      0.626600000000     0.700600000000     0.851200000000     0          
C6       C      0.596260000000     0.720500000000     0.890510000000     0          
H3       H      0.583000000000     0.700000000000     0.894600000000     0          
O6?      O      0.678630000000     0.728600000000     0.819000000000     0          
Zr2?     Zr     0.715380000000     0.715380000000     0.778930000000     0          
O1       O      0.717670000000     0.717670000000     0.717670000000     0          
C1       C      0.590420000000     0.750000000000     0.909580000000     0          
C5       C      0.641030000000     0.750000000000     0.858970000000     0          
C7       C      0.563020000000     0.750000000000     0.936980000000     0          
C8       C      0.668550000000     0.750000000000     0.831450000000     0          
N1       N      0.551590000000     0.749920000000     0.000000000000     0          
O7?      O      0.684100000000     0.752420000000     0.752420000000     0          
C2       C      0.028100000000     0.250980000000     0.426690000000     0          
C3       C      0.017440000000     0.252850000000     0.391360000000     0          
H1       H      0.032200000000     0.253900000000     0.371500000000     0          
C4       C      0.135350000000     0.279100000000     0.377720000000     0          
H2       H      0.148800000000     0.299400000000     0.373400000000     0          
C6       C      0.109490000000     0.279500000000     0.403740000000     0          
H3       H      0.105400000000     0.300000000000     0.417000000000     0          
O6?      O      0.181000000000     0.271400000000     0.321370000000     0          
Zr2?     Zr     0.221070000000     0.284620000000     0.284620000000     0          
Fe1      Fe     0.000000000000     0.250000000000     0.500000000000     0          
C1       C      0.090420000000     0.250000000000     0.409580000000     0          
C5       C      0.141030000000     0.250000000000     0.358970000000     0          
C7       C      0.063020000000     0.250000000000     0.436980000000     0          
C8       C      0.168550000000     0.250000000000     0.331450000000     0          
N1       N      0.000000000000     0.250080000000     0.448410000000     0          
O7?      O      0.247580000000     0.247580000000     0.315900000000     0          
C2       C      0.749020000000     0.028100000000     0.426690000000     0          
C3       C      0.747150000000     0.017440000000     0.391360000000     0          
H1       H      0.746100000000     0.032200000000     0.371500000000     0          
C4       C      0.720900000000     0.135350000000     0.377720000000     0          
H2       H      0.700600000000     0.148800000000     0.373400000000     0          
C6       C      0.720500000000     0.109490000000     0.403740000000     0          
H3       H      0.700000000000     0.105400000000     0.417000000000     0          
O6?      O      0.728600000000     0.181000000000     0.321370000000     0          
Zr2?     Zr     0.715380000000     0.221070000000     0.284620000000     0          
Fe1      Fe     0.750000000000     0.000000000000     0.500000000000     0          
C1       C      0.750000000000     0.090420000000     0.409580000000     0          
C5       C      0.750000000000     0.141030000000     0.358970000000     0          
C7       C      0.750000000000     0.063020000000     0.436980000000     0          
C8       C      0.750000000000     0.168550000000     0.331450000000     0          
N1       N      0.749920000000     0.000000000000     0.448410000000     0          
O7?      O      0.752420000000     0.247580000000     0.315900000000     0          
C2       C      0.971900000000     0.749020000000     0.426690000000     0          
C3       C      0.982560000000     0.747150000000     0.391360000000     0          
H1       H      0.967800000000     0.746100000000     0.371500000000     0          
C4       C      0.864650000000     0.720900000000     0.377720000000     0          
H2       H      0.851200000000     0.700600000000     0.373400000000     0          
C6       C      0.890510000000     0.720500000000     0.403740000000     0          
H3       H      0.894600000000     0.700000000000     0.417000000000     0          
O6?      O      0.819000000000     0.728600000000     0.321370000000     0          
Zr2?     Zr     0.778930000000     0.715380000000     0.284620000000     0          
Fe1      Fe     0.000000000000     0.750000000000     0.500000000000     0          
C1       C      0.909580000000     0.750000000000     0.409580000000     0          
C5       C      0.858970000000     0.750000000000     0.358970000000     0          
C7       C      0.936980000000     0.750000000000     0.436980000000     0          
C8       C      0.831450000000     0.750000000000     0.331450000000     0          
N1       N      0.000000000000     0.749920000000     0.448410000000     0          
O7?      O      0.752420000000     0.752420000000     0.315900000000     0          
C2       C      0.250980000000     0.971900000000     0.426690000000     0          
C3       C      0.252850000000     0.982560000000     0.391360000000     0          
H1       H      0.253900000000     0.967800000000     0.371500000000     0          
C4       C      0.279100000000     0.864650000000     0.377720000000     0          
H2       H      0.299400000000     0.851200000000     0.373400000000     0          
C6       C      0.279500000000     0.890510000000     0.403740000000     0          
H3       H      0.300000000000     0.894600000000     0.417000000000     0          
O6?      O      0.271400000000     0.819000000000     0.321370000000     0          
Zr2?     Zr     0.284620000000     0.778930000000     0.284620000000     0          
Fe1      Fe     0.250000000000     0.000000000000     0.500000000000     0          
C1       C      0.250000000000     0.909580000000     0.409580000000     0          
C5       C      0.250000000000     0.858970000000     0.358970000000     0          
C7       C      0.250000000000     0.936980000000     0.436980000000     0          
C8       C      0.250000000000     0.831450000000     0.331450000000     0          
N1       N      0.250080000000     0.000000000000     0.448410000000     0          
O7?      O      0.247580000000     0.752420000000     0.315900000000     0          
C2       C      0.028100000000     0.749020000000     0.573310000000     0          
C3       C      0.017440000000     0.747150000000     0.608640000000     0          
H1       H      0.032200000000     0.746100000000     0.628500000000     0          
C4       C      0.135350000000     0.720900000000     0.622280000000     0          
H2       H      0.148800000000     0.700600000000     0.626600000000     0          
C6       C      0.109490000000     0.720500000000     0.596260000000     0          
H3       H      0.105400000000     0.700000000000     0.583000000000     0          
O6?      O      0.181000000000     0.728600000000     0.678630000000     0          
Zr2?     Zr     0.221070000000     0.715380000000     0.715380000000     0          
C1       C      0.090420000000     0.750000000000     0.590420000000     0          
C5       C      0.141030000000     0.750000000000     0.641030000000     0          
C7       C      0.063020000000     0.750000000000     0.563020000000     0          
C8       C      0.168550000000     0.750000000000     0.668550000000     0          
N1       N      0.000000000000     0.749920000000     0.551590000000     0          
O7?      O      0.247580000000     0.752420000000     0.684100000000     0          
C2       C      0.250980000000     0.028100000000     0.573310000000     0          
C3       C      0.252850000000     0.017440000000     0.608640000000     0          
H1       H      0.253900000000     0.032200000000     0.628500000000     0          
C4       C      0.279100000000     0.135350000000     0.622280000000     0          
H2       H      0.299400000000     0.148800000000     0.626600000000     0          
C6       C      0.279500000000     0.109490000000     0.596260000000     0          
H3       H      0.300000000000     0.105400000000     0.583000000000     0          
O6?      O      0.271400000000     0.181000000000     0.678630000000     0          
Zr2?     Zr     0.284620000000     0.221070000000     0.715380000000     0          
C1       C      0.250000000000     0.090420000000     0.590420000000     0          
C5       C      0.250000000000     0.141030000000     0.641030000000     0          
C7       C      0.250000000000     0.063020000000     0.563020000000     0          
C8       C      0.250000000000     0.168550000000     0.668550000000     0          
N1       N      0.250080000000     0.000000000000     0.551590000000     0          
O7?      O      0.247580000000     0.247580000000     0.684100000000     0          
C2       C      0.971900000000     0.250980000000     0.573310000000     0          
C3       C      0.982560000000     0.252850000000     0.608640000000     0          
H1       H      0.967800000000     0.253900000000     0.628500000000     0          
C4       C      0.864650000000     0.279100000000     0.622280000000     0          
H2       H      0.851200000000     0.299400000000     0.626600000000     0          
C6       C      0.890510000000     0.279500000000     0.596260000000     0          
H3       H      0.894600000000     0.300000000000     0.583000000000     0          
O6?      O      0.819000000000     0.271400000000     0.678630000000     0          
Zr2?     Zr     0.778930000000     0.284620000000     0.715380000000     0          
C1       C      0.909580000000     0.250000000000     0.590420000000     0          
C5       C      0.858970000000     0.250000000000     0.641030000000     0          
C7       C      0.936980000000     0.250000000000     0.563020000000     0          
C8       C      0.831450000000     0.250000000000     0.668550000000     0          
N1       N      0.000000000000     0.250080000000     0.551590000000     0          
O7?      O      0.752420000000     0.247580000000     0.684100000000     0          
C2       C      0.749020000000     0.971900000000     0.573310000000     0          
C3       C      0.747150000000     0.982560000000     0.608640000000     0          
H1       H      0.746100000000     0.967800000000     0.628500000000     0          
C4       C      0.720900000000     0.864650000000     0.622280000000     0          
H2       H      0.700600000000     0.851200000000     0.626600000000     0          
C6       C      0.720500000000     0.890510000000     0.596260000000     0          
H3       H      0.700000000000     0.894600000000     0.583000000000     0          
O6?      O      0.728600000000     0.819000000000     0.678630000000     0          
Zr2?     Zr     0.715380000000     0.778930000000     0.715380000000     0          
C1       C      0.750000000000     0.909580000000     0.590420000000     0          
C5       C      0.750000000000     0.858970000000     0.641030000000     0          
C7       C      0.750000000000     0.936980000000     0.563020000000     0          
C8       C      0.750000000000     0.831450000000     0.668550000000     0          
N1       N      0.749920000000     0.000000000000     0.551590000000     0          
O7?      O      0.752420000000     0.752420000000     0.684100000000     0          
C2       C      0.426690000000     0.028100000000     0.250980000000     0          
C3       C      0.391360000000     0.017440000000     0.252850000000     0          
H1       H      0.371500000000     0.032200000000     0.253900000000     0          
C4       C      0.377720000000     0.135350000000     0.279100000000     0          
H2       H      0.373400000000     0.148800000000     0.299400000000     0          
C6       C      0.403740000000     0.109490000000     0.279500000000     0          
H3       H      0.417000000000     0.105400000000     0.300000000000     0          
O6?      O      0.321370000000     0.181000000000     0.271400000000     0          
Zr2?     Zr     0.284620000000     0.221070000000     0.284620000000     0          
Fe1      Fe     0.500000000000     0.000000000000     0.250000000000     0          
C1       C      0.409580000000     0.090420000000     0.250000000000     0          
C5       C      0.358970000000     0.141030000000     0.250000000000     0          
C7       C      0.436980000000     0.063020000000     0.250000000000     0          
C8       C      0.331450000000     0.168550000000     0.250000000000     0          
N1       N      0.448410000000     0.000000000000     0.250080000000     0          
O7?      O      0.315900000000     0.247580000000     0.247580000000     0          
C2       C      0.426690000000     0.971900000000     0.749020000000     0          
C3       C      0.391360000000     0.982560000000     0.747150000000     0          
H1       H      0.371500000000     0.967800000000     0.746100000000     0          
C4       C      0.377720000000     0.864650000000     0.720900000000     0          
H2       H      0.373400000000     0.851200000000     0.700600000000     0          
C6       C      0.403740000000     0.890510000000     0.720500000000     0          
H3       H      0.417000000000     0.894600000000     0.700000000000     0          
O6?      O      0.321370000000     0.819000000000     0.728600000000     0          
Zr2?     Zr     0.284620000000     0.778930000000     0.715380000000     0          
Fe1      Fe     0.500000000000     0.000000000000     0.750000000000     0          
C1       C      0.409580000000     0.909580000000     0.750000000000     0          
C5       C      0.358970000000     0.858970000000     0.750000000000     0          
C7       C      0.436980000000     0.936980000000     0.750000000000     0          
C8       C      0.331450000000     0.831450000000     0.750000000000     0          
N1       N      0.448410000000     0.000000000000     0.749920000000     0          
O7?      O      0.315900000000     0.752420000000     0.752420000000     0          
C2       C      0.028100000000     0.426690000000     0.749020000000     0          
C3       C      0.017440000000     0.391360000000     0.747150000000     0          
H1       H      0.032200000000     0.371500000000     0.746100000000     0          
C4       C      0.135350000000     0.377720000000     0.720900000000     0          
H2       H      0.148800000000     0.373400000000     0.700600000000     0          
C6       C      0.109490000000     0.403740000000     0.720500000000     0          
H3       H      0.105400000000     0.417000000000     0.700000000000     0          
O6?      O      0.181000000000     0.321370000000     0.728600000000     0          
Zr2?     Zr     0.221070000000     0.284620000000     0.715380000000     0          
Fe1      Fe     0.000000000000     0.500000000000     0.750000000000     0          
C1       C      0.090420000000     0.409580000000     0.750000000000     0          
C5       C      0.141030000000     0.358970000000     0.750000000000     0          
C7       C      0.063020000000     0.436980000000     0.750000000000     0          
C8       C      0.168550000000     0.331450000000     0.750000000000     0          
N1       N      0.000000000000     0.448410000000     0.749920000000     0          
O7?      O      0.247580000000     0.315900000000     0.752420000000     0          
C2       C      0.573310000000     0.028100000000     0.749020000000     0          
C3       C      0.608640000000     0.017440000000     0.747150000000     0          
H1       H      0.628500000000     0.032200000000     0.746100000000     0          
C4       C      0.622280000000     0.135350000000     0.720900000000     0          
H2       H      0.626600000000     0.148800000000     0.700600000000     0          
C6       C      0.596260000000     0.109490000000     0.720500000000     0          
H3       H      0.583000000000     0.105400000000     0.700000000000     0          
O6?      O      0.678630000000     0.181000000000     0.728600000000     0          
Zr2?     Zr     0.715380000000     0.221070000000     0.715380000000     0          
C1       C      0.590420000000     0.090420000000     0.750000000000     0          
C5       C      0.641030000000     0.141030000000     0.750000000000     0          
C7       C      0.563020000000     0.063020000000     0.750000000000     0          
C8       C      0.668550000000     0.168550000000     0.750000000000     0          
N1       N      0.551590000000     0.000000000000     0.749920000000     0          
O7?      O      0.684100000000     0.247580000000     0.752420000000     0          
C2       C      0.971900000000     0.573310000000     0.749020000000     0          
C3       C      0.982560000000     0.608640000000     0.747150000000     0          
H1       H      0.967800000000     0.628500000000     0.746100000000     0          
C4       C      0.864650000000     0.622280000000     0.720900000000     0          
H2       H      0.851200000000     0.626600000000     0.700600000000     0          
C6       C      0.890510000000     0.596260000000     0.720500000000     0          
H3       H      0.894600000000     0.583000000000     0.700000000000     0          
O6?      O      0.819000000000     0.678630000000     0.728600000000     0          
Zr2?     Zr     0.778930000000     0.715380000000     0.715380000000     0          
C1       C      0.909580000000     0.590420000000     0.750000000000     0          
C5       C      0.858970000000     0.641030000000     0.750000000000     0          
C7       C      0.936980000000     0.563020000000     0.750000000000     0          
C8       C      0.831450000000     0.668550000000     0.750000000000     0          
N1       N      0.000000000000     0.551590000000     0.749920000000     0          
O7?      O      0.752420000000     0.684100000000     0.752420000000     0          
C2       C      0.573310000000     0.971900000000     0.250980000000     0          
C3       C      0.608640000000     0.982560000000     0.252850000000     0          
H1       H      0.628500000000     0.967800000000     0.253900000000     0          
C4       C      0.622280000000     0.864650000000     0.279100000000     0          
H2       H      0.626600000000     0.851200000000     0.299400000000     0          
C6       C      0.596260000000     0.890510000000     0.279500000000     0          
H3       H      0.583000000000     0.894600000000     0.300000000000     0          
O6?      O      0.678630000000     0.819000000000     0.271400000000     0          
Zr2?     Zr     0.715380000000     0.778930000000     0.284620000000     0          
C1       C      0.590420000000     0.909580000000     0.250000000000     0          
C5       C      0.641030000000     0.858970000000     0.250000000000     0          
C7       C      0.563020000000     0.936980000000     0.250000000000     0          
C8       C      0.668550000000     0.831450000000     0.250000000000     0          
N1       N      0.551590000000     0.000000000000     0.250080000000     0          
O7?      O      0.684100000000     0.752420000000     0.247580000000     0          
C2       C      0.028100000000     0.573310000000     0.250980000000     0          
C3       C      0.017440000000     0.608640000000     0.252850000000     0          
H1       H      0.032200000000     0.628500000000     0.253900000000     0          
C4       C      0.135350000000     0.622280000000     0.279100000000     0          
H2       H      0.148800000000     0.626600000000     0.299400000000     0          
C6       C      0.109490000000     0.596260000000     0.279500000000     0          
H3       H      0.105400000000     0.583000000000     0.300000000000     0          
O6?      O      0.181000000000     0.678630000000     0.271400000000     0          
Zr2?     Zr     0.221070000000     0.715380000000     0.284620000000     0          
Fe1      Fe     0.000000000000     0.500000000000     0.250000000000     0          
C1       C      0.090420000000     0.590420000000     0.250000000000     0          
C5       C      0.141030000000     0.641030000000     0.250000000000     0          
C7       C      0.063020000000     0.563020000000     0.250000000000     0          
C8       C      0.168550000000     0.668550000000     0.250000000000     0          
N1       N      0.000000000000     0.551590000000     0.250080000000     0          
O7?      O      0.247580000000     0.684100000000     0.247580000000     0          
C2       C      0.971900000000     0.426690000000     0.250980000000     0          
C3       C      0.982560000000     0.391360000000     0.252850000000     0          
H1       H      0.967800000000     0.371500000000     0.253900000000     0          
C4       C      0.864650000000     0.377720000000     0.279100000000     0          
H2       H      0.851200000000     0.373400000000     0.299400000000     0          
C6       C      0.890510000000     0.403740000000     0.279500000000     0          
H3       H      0.894600000000     0.417000000000     0.300000000000     0          
O6?      O      0.819000000000     0.321370000000     0.271400000000     0          
Zr2?     Zr     0.778930000000     0.284620000000     0.284620000000     0          
C1       C      0.909580000000     0.409580000000     0.250000000000     0          
C5       C      0.858970000000     0.358970000000     0.250000000000     0          
C7       C      0.936980000000     0.436980000000     0.250000000000     0          
C8       C      0.831450000000     0.331450000000     0.250000000000     0          
N1       N      0.000000000000     0.448410000000     0.250080000000     0          
O7?      O      0.752420000000     0.315900000000     0.247580000000     0          
C2       C      0.749020000000     0.573310000000     0.971900000000     0          
C3       C      0.747150000000     0.608640000000     0.982560000000     0          
H1       H      0.746100000000     0.628500000000     0.967800000000     0          
C4       C      0.720900000000     0.622280000000     0.864650000000     0          
H2       H      0.700600000000     0.626600000000     0.851200000000     0          
C6       C      0.720500000000     0.596260000000     0.890510000000     0          
H3       H      0.700000000000     0.583000000000     0.894600000000     0          
O6?      O      0.728600000000     0.678630000000     0.819000000000     0          
C1       C      0.750000000000     0.590420000000     0.909580000000     0          
C5       C      0.750000000000     0.641030000000     0.858970000000     0          
C7       C      0.750000000000     0.563020000000     0.936980000000     0          
C8       C      0.750000000000     0.668550000000     0.831450000000     0          
C2       C      0.426690000000     0.749020000000     0.971900000000     0          
C3       C      0.391360000000     0.747150000000     0.982560000000     0          
H1       H      0.371500000000     0.746100000000     0.967800000000     0          
C4       C      0.377720000000     0.720900000000     0.864650000000     0          
H2       H      0.373400000000     0.700600000000     0.851200000000     0          
C6       C      0.403740000000     0.720500000000     0.890510000000     0          
H3       H      0.417000000000     0.700000000000     0.894600000000     0          
O6?      O      0.321370000000     0.728600000000     0.819000000000     0          
C1       C      0.409580000000     0.750000000000     0.909580000000     0          
C5       C      0.358970000000     0.750000000000     0.858970000000     0          
C7       C      0.436980000000     0.750000000000     0.936980000000     0          
C8       C      0.331450000000     0.750000000000     0.831450000000     0          
C2       C      0.250980000000     0.426690000000     0.971900000000     0          
C3       C      0.252850000000     0.391360000000     0.982560000000     0          
H1       H      0.253900000000     0.371500000000     0.967800000000     0          
C4       C      0.279100000000     0.377720000000     0.864650000000     0          
H2       H      0.299400000000     0.373400000000     0.851200000000     0          
C6       C      0.279500000000     0.403740000000     0.890510000000     0          
H3       H      0.300000000000     0.417000000000     0.894600000000     0          
O6?      O      0.271400000000     0.321370000000     0.819000000000     0          
C1       C      0.250000000000     0.409580000000     0.909580000000     0          
C5       C      0.250000000000     0.358970000000     0.858970000000     0          
C7       C      0.250000000000     0.436980000000     0.936980000000     0          
C8       C      0.250000000000     0.331450000000     0.831450000000     0          
C2       C      0.573310000000     0.250980000000     0.971900000000     0          
C3       C      0.608640000000     0.252850000000     0.982560000000     0          
H1       H      0.628500000000     0.253900000000     0.967800000000     0          
C4       C      0.622280000000     0.279100000000     0.864650000000     0          
H2       H      0.626600000000     0.299400000000     0.851200000000     0          
C6       C      0.596260000000     0.279500000000     0.890510000000     0          
H3       H      0.583000000000     0.300000000000     0.894600000000     0          
O6?      O      0.678630000000     0.271400000000     0.819000000000     0          
C1       C      0.590420000000     0.250000000000     0.909580000000     0          
C5       C      0.641030000000     0.250000000000     0.858970000000     0          
C7       C      0.563020000000     0.250000000000     0.936980000000     0          
C8       C      0.668550000000     0.250000000000     0.831450000000     0          
C2       C      0.749020000000     0.426690000000     0.028100000000     0          
C3       C      0.747150000000     0.391360000000     0.017440000000     0          
H1       H      0.746100000000     0.371500000000     0.032200000000     0          
C4       C      0.720900000000     0.377720000000     0.135350000000     0          
H2       H      0.700600000000     0.373400000000     0.148800000000     0          
C6       C      0.720500000000     0.403740000000     0.109490000000     0          
H3       H      0.700000000000     0.417000000000     0.105400000000     0          
O6?      O      0.728600000000     0.321370000000     0.181000000000     0          
C1       C      0.750000000000     0.409580000000     0.090420000000     0          
C5       C      0.750000000000     0.358970000000     0.141030000000     0          
C7       C      0.750000000000     0.436980000000     0.063020000000     0          
C8       C      0.750000000000     0.331450000000     0.168550000000     0          
C2       C      0.573310000000     0.749020000000     0.028100000000     0          
C3       C      0.608640000000     0.747150000000     0.017440000000     0          
H1       H      0.628500000000     0.746100000000     0.032200000000     0          
C4       C      0.622280000000     0.720900000000     0.135350000000     0          
H2       H      0.626600000000     0.700600000000     0.148800000000     0          
C6       C      0.596260000000     0.720500000000     0.109490000000     0          
H3       H      0.583000000000     0.700000000000     0.105400000000     0          
O6?      O      0.678630000000     0.728600000000     0.181000000000     0          
C1       C      0.590420000000     0.750000000000     0.090420000000     0          
C5       C      0.641030000000     0.750000000000     0.141030000000     0          
C7       C      0.563020000000     0.750000000000     0.063020000000     0          
C8       C      0.668550000000     0.750000000000     0.168550000000     0          
C2       C      0.250980000000     0.573310000000     0.028100000000     0          
C3       C      0.252850000000     0.608640000000     0.017440000000     0          
H1       H      0.253900000000     0.628500000000     0.032200000000     0          
C4       C      0.279100000000     0.622280000000     0.135350000000     0          
H2       H      0.299400000000     0.626600000000     0.148800000000     0          
C6       C      0.279500000000     0.596260000000     0.109490000000     0          
H3       H      0.300000000000     0.583000000000     0.105400000000     0          
O6?      O      0.271400000000     0.678630000000     0.181000000000     0          
C1       C      0.250000000000     0.590420000000     0.090420000000     0          
C5       C      0.250000000000     0.641030000000     0.141030000000     0          
C7       C      0.250000000000     0.563020000000     0.063020000000     0          
C8       C      0.250000000000     0.668550000000     0.168550000000     0          
C2       C      0.426690000000     0.250980000000     0.028100000000     0          
C3       C      0.391360000000     0.252850000000     0.017440000000     0          
H1       H      0.371500000000     0.253900000000     0.032200000000     0          
C4       C      0.377720000000     0.279100000000     0.135350000000     0          
H2       H      0.373400000000     0.299400000000     0.148800000000     0          
C6       C      0.403740000000     0.279500000000     0.109490000000     0          
H3       H      0.417000000000     0.300000000000     0.105400000000     0          
O6?      O      0.321370000000     0.271400000000     0.181000000000     0          
C1       C      0.409580000000     0.250000000000     0.090420000000     0          
C5       C      0.358970000000     0.250000000000     0.141030000000     0          
C7       C      0.436980000000     0.250000000000     0.063020000000     0          
C8       C      0.331450000000     0.250000000000     0.168550000000     0          
C2       C      0.971900000000     0.749020000000     0.573310000000     0          
C3       C      0.982560000000     0.747150000000     0.608640000000     0          
H1       H      0.967800000000     0.746100000000     0.628500000000     0          
C4       C      0.864650000000     0.720900000000     0.622280000000     0          
H2       H      0.851200000000     0.700600000000     0.626600000000     0          
C6       C      0.890510000000     0.720500000000     0.596260000000     0          
H3       H      0.894600000000     0.700000000000     0.583000000000     0          
O6?      O      0.819000000000     0.728600000000     0.678630000000     0          
C1       C      0.909580000000     0.750000000000     0.590420000000     0          
C5       C      0.858970000000     0.750000000000     0.641030000000     0          
C7       C      0.936980000000     0.750000000000     0.563020000000     0          
C8       C      0.831450000000     0.750000000000     0.668550000000     0          
C2       C      0.250980000000     0.971900000000     0.573310000000     0          
C3       C      0.252850000000     0.982560000000     0.608640000000     0          
H1       H      0.253900000000     0.967800000000     0.628500000000     0          
C4       C      0.279100000000     0.864650000000     0.622280000000     0          
H2       H      0.299400000000     0.851200000000     0.626600000000     0          
C6       C      0.279500000000     0.890510000000     0.596260000000     0          
H3       H      0.300000000000     0.894600000000     0.583000000000     0          
O6?      O      0.271400000000     0.819000000000     0.678630000000     0          
C1       C      0.250000000000     0.909580000000     0.590420000000     0          
C5       C      0.250000000000     0.858970000000     0.641030000000     0          
C7       C      0.250000000000     0.936980000000     0.563020000000     0          
C8       C      0.250000000000     0.831450000000     0.668550000000     0          
C2       C      0.028100000000     0.250980000000     0.573310000000     0          
C3       C      0.017440000000     0.252850000000     0.608640000000     0          
H1       H      0.032200000000     0.253900000000     0.628500000000     0          
C4       C      0.135350000000     0.279100000000     0.622280000000     0          
H2       H      0.148800000000     0.299400000000     0.626600000000     0          
C6       C      0.109490000000     0.279500000000     0.596260000000     0          
H3       H      0.105400000000     0.300000000000     0.583000000000     0          
O6?      O      0.181000000000     0.271400000000     0.678630000000     0          
C1       C      0.090420000000     0.250000000000     0.590420000000     0          
C5       C      0.141030000000     0.250000000000     0.641030000000     0          
C7       C      0.063020000000     0.250000000000     0.563020000000     0          
C8       C      0.168550000000     0.250000000000     0.668550000000     0          
C2       C      0.749020000000     0.028100000000     0.573310000000     0          
C3       C      0.747150000000     0.017440000000     0.608640000000     0          
H1       H      0.746100000000     0.032200000000     0.628500000000     0          
C4       C      0.720900000000     0.135350000000     0.622280000000     0          
H2       H      0.700600000000     0.148800000000     0.626600000000     0          
C6       C      0.720500000000     0.109490000000     0.596260000000     0          
H3       H      0.700000000000     0.105400000000     0.583000000000     0          
O6?      O      0.728600000000     0.181000000000     0.678630000000     0          
C1       C      0.750000000000     0.090420000000     0.590420000000     0          
C5       C      0.750000000000     0.141030000000     0.641030000000     0          
C7       C      0.750000000000     0.063020000000     0.563020000000     0          
C8       C      0.750000000000     0.168550000000     0.668550000000     0          
C2       C      0.971900000000     0.250980000000     0.426690000000     0          
C3       C      0.982560000000     0.252850000000     0.391360000000     0          
H1       H      0.967800000000     0.253900000000     0.371500000000     0          
C4       C      0.864650000000     0.279100000000     0.377720000000     0          
H2       H      0.851200000000     0.299400000000     0.373400000000     0          
C6       C      0.890510000000     0.279500000000     0.403740000000     0          
H3       H      0.894600000000     0.300000000000     0.417000000000     0          
O6?      O      0.819000000000     0.271400000000     0.321370000000     0          
C1       C      0.909580000000     0.250000000000     0.409580000000     0          
C5       C      0.858970000000     0.250000000000     0.358970000000     0          
C7       C      0.936980000000     0.250000000000     0.436980000000     0          
C8       C      0.831450000000     0.250000000000     0.331450000000     0          
C2       C      0.749020000000     0.971900000000     0.426690000000     0          
C3       C      0.747150000000     0.982560000000     0.391360000000     0          
H1       H      0.746100000000     0.967800000000     0.371500000000     0          
C4       C      0.720900000000     0.864650000000     0.377720000000     0          
H2       H      0.700600000000     0.851200000000     0.373400000000     0          
C6       C      0.720500000000     0.890510000000     0.403740000000     0          
H3       H      0.700000000000     0.894600000000     0.417000000000     0          
O6?      O      0.728600000000     0.819000000000     0.321370000000     0          
C1       C      0.750000000000     0.909580000000     0.409580000000     0          
C5       C      0.750000000000     0.858970000000     0.358970000000     0          
C7       C      0.750000000000     0.936980000000     0.436980000000     0          
C8       C      0.750000000000     0.831450000000     0.331450000000     0          
C2       C      0.028100000000     0.749020000000     0.426690000000     0          
C3       C      0.017440000000     0.747150000000     0.391360000000     0          
H1       H      0.032200000000     0.746100000000     0.371500000000     0          
C4       C      0.135350000000     0.720900000000     0.377720000000     0          
H2       H      0.148800000000     0.700600000000     0.373400000000     0          
C6       C      0.109490000000     0.720500000000     0.403740000000     0          
H3       H      0.105400000000     0.700000000000     0.417000000000     0          
O6?      O      0.181000000000     0.728600000000     0.321370000000     0          
C1       C      0.090420000000     0.750000000000     0.409580000000     0          
C5       C      0.141030000000     0.750000000000     0.358970000000     0          
C7       C      0.063020000000     0.750000000000     0.436980000000     0          
C8       C      0.168550000000     0.750000000000     0.331450000000     0          
C2       C      0.250980000000     0.028100000000     0.426690000000     0          
C3       C      0.252850000000     0.017440000000     0.391360000000     0          
H1       H      0.253900000000     0.032200000000     0.371500000000     0          
C4       C      0.279100000000     0.135350000000     0.377720000000     0          
H2       H      0.299400000000     0.148800000000     0.373400000000     0          
C6       C      0.279500000000     0.109490000000     0.403740000000     0          
H3       H      0.300000000000     0.105400000000     0.417000000000     0          
O6?      O      0.271400000000     0.181000000000     0.321370000000     0          
C1       C      0.250000000000     0.090420000000     0.409580000000     0          
C5       C      0.250000000000     0.141030000000     0.358970000000     0          
C7       C      0.250000000000     0.063020000000     0.436980000000     0          
C8       C      0.250000000000     0.168550000000     0.331450000000     0          
C2       C      0.573310000000     0.971900000000     0.749020000000     0          
C3       C      0.608640000000     0.982560000000     0.747150000000     0          
H1       H      0.628500000000     0.967800000000     0.746100000000     0          
C4       C      0.622280000000     0.864650000000     0.720900000000     0          
H2       H      0.626600000000     0.851200000000     0.700600000000     0          
C6       C      0.596260000000     0.890510000000     0.720500000000     0          
H3       H      0.583000000000     0.894600000000     0.700000000000     0          
O6?      O      0.678630000000     0.819000000000     0.728600000000     0          
C1       C      0.590420000000     0.909580000000     0.750000000000     0          
C5       C      0.641030000000     0.858970000000     0.750000000000     0          
C7       C      0.563020000000     0.936980000000     0.750000000000     0          
C8       C      0.668550000000     0.831450000000     0.750000000000     0          
C2       C      0.573310000000     0.028100000000     0.250980000000     0          
C3       C      0.608640000000     0.017440000000     0.252850000000     0          
H1       H      0.628500000000     0.032200000000     0.253900000000     0          
C4       C      0.622280000000     0.135350000000     0.279100000000     0          
H2       H      0.626600000000     0.148800000000     0.299400000000     0          
C6       C      0.596260000000     0.109490000000     0.279500000000     0          
H3       H      0.583000000000     0.105400000000     0.300000000000     0          
O6?      O      0.678630000000     0.181000000000     0.271400000000     0          
C1       C      0.590420000000     0.090420000000     0.250000000000     0          
C5       C      0.641030000000     0.141030000000     0.250000000000     0          
C7       C      0.563020000000     0.063020000000     0.250000000000     0          
C8       C      0.668550000000     0.168550000000     0.250000000000     0          
C2       C      0.971900000000     0.573310000000     0.250980000000     0          
C3       C      0.982560000000     0.608640000000     0.252850000000     0          
H1       H      0.967800000000     0.628500000000     0.253900000000     0          
C4       C      0.864650000000     0.622280000000     0.279100000000     0          
H2       H      0.851200000000     0.626600000000     0.299400000000     0          
C6       C      0.890510000000     0.596260000000     0.279500000000     0          
H3       H      0.894600000000     0.583000000000     0.300000000000     0          
O6?      O      0.819000000000     0.678630000000     0.271400000000     0          
C1       C      0.909580000000     0.590420000000     0.250000000000     0          
C5       C      0.858970000000     0.641030000000     0.250000000000     0          
C7       C      0.936980000000     0.563020000000     0.250000000000     0          
C8       C      0.831450000000     0.668550000000     0.250000000000     0          
C2       C      0.426690000000     0.971900000000     0.250980000000     0          
C3       C      0.391360000000     0.982560000000     0.252850000000     0          
H1       H      0.371500000000     0.967800000000     0.253900000000     0          
C4       C      0.377720000000     0.864650000000     0.279100000000     0          
H2       H      0.373400000000     0.851200000000     0.299400000000     0          
C6       C      0.403740000000     0.890510000000     0.279500000000     0          
H3       H      0.417000000000     0.894600000000     0.300000000000     0          
O6?      O      0.321370000000     0.819000000000     0.271400000000     0          
C1       C      0.409580000000     0.909580000000     0.250000000000     0          
C5       C      0.358970000000     0.858970000000     0.250000000000     0          
C7       C      0.436980000000     0.936980000000     0.250000000000     0          
C8       C      0.331450000000     0.831450000000     0.250000000000     0          
C2       C      0.028100000000     0.426690000000     0.250980000000     0          
C3       C      0.017440000000     0.391360000000     0.252850000000     0          
H1       H      0.032200000000     0.371500000000     0.253900000000     0          
C4       C      0.135350000000     0.377720000000     0.279100000000     0          
H2       H      0.148800000000     0.373400000000     0.299400000000     0          
C6       C      0.109490000000     0.403740000000     0.279500000000     0          
H3       H      0.105400000000     0.417000000000     0.300000000000     0          
O6?      O      0.181000000000     0.321370000000     0.271400000000     0          
C1       C      0.090420000000     0.409580000000     0.250000000000     0          
C5       C      0.141030000000     0.358970000000     0.250000000000     0          
C7       C      0.063020000000     0.436980000000     0.250000000000     0          
C8       C      0.168550000000     0.331450000000     0.250000000000     0          
C2       C      0.426690000000     0.028100000000     0.749020000000     0          
C3       C      0.391360000000     0.017440000000     0.747150000000     0          
H1       H      0.371500000000     0.032200000000     0.746100000000     0          
C4       C      0.377720000000     0.135350000000     0.720900000000     0          
H2       H      0.373400000000     0.148800000000     0.700600000000     0          
C6       C      0.403740000000     0.109490000000     0.720500000000     0          
H3       H      0.417000000000     0.105400000000     0.700000000000     0          
O6?      O      0.321370000000     0.181000000000     0.728600000000     0          
C1       C      0.409580000000     0.090420000000     0.750000000000     0          
C5       C      0.358970000000     0.141030000000     0.750000000000     0          
C7       C      0.436980000000     0.063020000000     0.750000000000     0          
C8       C      0.331450000000     0.168550000000     0.750000000000     0          
C2       C      0.971900000000     0.426690000000     0.749020000000     0          
C3       C      0.982560000000     0.391360000000     0.747150000000     0          
H1       H      0.967800000000     0.371500000000     0.746100000000     0          
C4       C      0.864650000000     0.377720000000     0.720900000000     0          
H2       H      0.851200000000     0.373400000000     0.700600000000     0          
C6       C      0.890510000000     0.403740000000     0.720500000000     0          
H3       H      0.894600000000     0.417000000000     0.700000000000     0          
O6?      O      0.819000000000     0.321370000000     0.728600000000     0          
C1       C      0.909580000000     0.409580000000     0.750000000000     0          
C5       C      0.858970000000     0.358970000000     0.750000000000     0          
C7       C      0.936980000000     0.436980000000     0.750000000000     0          
C8       C      0.831450000000     0.331450000000     0.750000000000     0          
C2       C      0.028100000000     0.573310000000     0.749020000000     0          
C3       C      0.017440000000     0.608640000000     0.747150000000     0          
H1       H      0.032200000000     0.628500000000     0.746100000000     0          
C4       C      0.135350000000     0.622280000000     0.720900000000     0          
H2       H      0.148800000000     0.626600000000     0.700600000000     0          
C6       C      0.109490000000     0.596260000000     0.720500000000     0          
H3       H      0.105400000000     0.583000000000     0.700000000000     0          
O6?      O      0.181000000000     0.678630000000     0.728600000000     0          
C1       C      0.090420000000     0.590420000000     0.750000000000     0          
C5       C      0.141030000000     0.641030000000     0.750000000000     0          
C7       C      0.063020000000     0.563020000000     0.750000000000     0          
C8       C      0.168550000000     0.668550000000     0.750000000000     0          
C2       C      0.750980000000     0.926690000000     0.528100000000     0          
C3       C      0.752850000000     0.891360000000     0.517440000000     0          
H1       H      0.753900000000     0.871500000000     0.532200000000     0          
C4       C      0.779100000000     0.877720000000     0.635350000000     0          
H2       H      0.799400000000     0.873400000000     0.648800000000     0          
C6       C      0.779500000000     0.903740000000     0.609490000000     0          
H3       H      0.800000000000     0.917000000000     0.605400000000     0          
O6?      O      0.771400000000     0.821370000000     0.681000000000     0          
Zr2?     Zr     0.784620000000     0.784620000000     0.721070000000     0          
O1       O      0.782330000000     0.782330000000     0.782330000000     0          
N1       N      0.750080000000     0.948410000000     0.500000000000     0          
O7?      O      0.747580000000     0.815900000000     0.747580000000     0          
C2       C      0.073310000000     0.750980000000     0.528100000000     0          
C3       C      0.108640000000     0.752850000000     0.517440000000     0          
H1       H      0.128500000000     0.753900000000     0.532200000000     0          
C4       C      0.122280000000     0.779100000000     0.635350000000     0          
H2       H      0.126600000000     0.799400000000     0.648800000000     0          
C6       C      0.096260000000     0.779500000000     0.609490000000     0          
H3       H      0.083000000000     0.800000000000     0.605400000000     0          
O6?      O      0.178630000000     0.771400000000     0.681000000000     0          
Zr2?     Zr     0.215380000000     0.784620000000     0.721070000000     0          
O1       O      0.217670000000     0.782330000000     0.782330000000     0          
N1       N      0.051590000000     0.750080000000     0.500000000000     0          
O7?      O      0.184100000000     0.747580000000     0.747580000000     0          
C2       C      0.249020000000     0.073310000000     0.528100000000     0          
C3       C      0.247150000000     0.108640000000     0.517440000000     0          
H1       H      0.246100000000     0.128500000000     0.532200000000     0          
C4       C      0.220900000000     0.122280000000     0.635350000000     0          
H2       H      0.200600000000     0.126600000000     0.648800000000     0          
C6       C      0.220500000000     0.096260000000     0.609490000000     0          
H3       H      0.200000000000     0.083000000000     0.605400000000     0          
O6?      O      0.228600000000     0.178630000000     0.681000000000     0          
Zr2?     Zr     0.215380000000     0.215380000000     0.721070000000     0          
O1       O      0.217670000000     0.217670000000     0.782330000000     0          
N1       N      0.249920000000     0.051590000000     0.500000000000     0          
O7?      O      0.252420000000     0.184100000000     0.747580000000     0          
C2       C      0.926690000000     0.249020000000     0.528100000000     0          
C3       C      0.891360000000     0.247150000000     0.517440000000     0          
H1       H      0.871500000000     0.246100000000     0.532200000000     0          
C4       C      0.877720000000     0.220900000000     0.635350000000     0          
H2       H      0.873400000000     0.200600000000     0.648800000000     0          
C6       C      0.903740000000     0.220500000000     0.609490000000     0          
H3       H      0.917000000000     0.200000000000     0.605400000000     0          
O6?      O      0.821370000000     0.228600000000     0.681000000000     0          
Zr2?     Zr     0.784620000000     0.215380000000     0.721070000000     0          
O1       O      0.782330000000     0.217670000000     0.782330000000     0          
N1       N      0.948410000000     0.249920000000     0.500000000000     0          
O7?      O      0.815900000000     0.252420000000     0.747580000000     0          
C2       C      0.750980000000     0.073310000000     0.471900000000     0          
C3       C      0.752850000000     0.108640000000     0.482560000000     0          
H1       H      0.753900000000     0.128500000000     0.467800000000     0          
C4       C      0.779100000000     0.122280000000     0.364650000000     0          
H2       H      0.799400000000     0.126600000000     0.351200000000     0          
C6       C      0.779500000000     0.096260000000     0.390510000000     0          
H3       H      0.800000000000     0.083000000000     0.394600000000     0          
O6?      O      0.771400000000     0.178630000000     0.319000000000     0          
Zr2?     Zr     0.784620000000     0.215380000000     0.278930000000     0          
O1       O      0.782330000000     0.217670000000     0.217670000000     0          
N1       N      0.750080000000     0.051590000000     0.500000000000     0          
O7?      O      0.747580000000     0.184100000000     0.252420000000     0          
C2       C      0.926690000000     0.750980000000     0.471900000000     0          
C3       C      0.891360000000     0.752850000000     0.482560000000     0          
H1       H      0.871500000000     0.753900000000     0.467800000000     0          
C4       C      0.877720000000     0.779100000000     0.364650000000     0          
H2       H      0.873400000000     0.799400000000     0.351200000000     0          
C6       C      0.903740000000     0.779500000000     0.390510000000     0          
H3       H      0.917000000000     0.800000000000     0.394600000000     0          
O6?      O      0.821370000000     0.771400000000     0.319000000000     0          
Zr2?     Zr     0.784620000000     0.784620000000     0.278930000000     0          
O1       O      0.782330000000     0.782330000000     0.217670000000     0          
N1       N      0.948410000000     0.750080000000     0.500000000000     0          
O7?      O      0.815900000000     0.747580000000     0.252420000000     0          
C2       C      0.249020000000     0.926690000000     0.471900000000     0          
C3       C      0.247150000000     0.891360000000     0.482560000000     0          
H1       H      0.246100000000     0.871500000000     0.467800000000     0          
C4       C      0.220900000000     0.877720000000     0.364650000000     0          
H2       H      0.200600000000     0.873400000000     0.351200000000     0          
C6       C      0.220500000000     0.903740000000     0.390510000000     0          
H3       H      0.200000000000     0.917000000000     0.394600000000     0          
O6?      O      0.228600000000     0.821370000000     0.319000000000     0          
Zr2?     Zr     0.215380000000     0.784620000000     0.278930000000     0          
O1       O      0.217670000000     0.782330000000     0.217670000000     0          
N1       N      0.249920000000     0.948410000000     0.500000000000     0          
O7?      O      0.252420000000     0.815900000000     0.252420000000     0          
C2       C      0.073310000000     0.249020000000     0.471900000000     0          
C3       C      0.108640000000     0.247150000000     0.482560000000     0          
H1       H      0.128500000000     0.246100000000     0.467800000000     0          
C4       C      0.122280000000     0.220900000000     0.364650000000     0          
H2       H      0.126600000000     0.200600000000     0.351200000000     0          
C6       C      0.096260000000     0.220500000000     0.390510000000     0          
H3       H      0.083000000000     0.200000000000     0.394600000000     0          
O6?      O      0.178630000000     0.228600000000     0.319000000000     0          
Zr2?     Zr     0.215380000000     0.215380000000     0.278930000000     0          
O1       O      0.217670000000     0.217670000000     0.217670000000     0          
N1       N      0.051590000000     0.249920000000     0.500000000000     0          
O7?      O      0.184100000000     0.252420000000     0.252420000000     0          
C2       C      0.528100000000     0.750980000000     0.926690000000     0          
C3       C      0.517440000000     0.752850000000     0.891360000000     0          
H1       H      0.532200000000     0.753900000000     0.871500000000     0          
C4       C      0.635350000000     0.779100000000     0.877720000000     0          
H2       H      0.648800000000     0.799400000000     0.873400000000     0          
C6       C      0.609490000000     0.779500000000     0.903740000000     0          
H3       H      0.605400000000     0.800000000000     0.917000000000     0          
O6?      O      0.681000000000     0.771400000000     0.821370000000     0          
Zr2?     Zr     0.721070000000     0.784620000000     0.784620000000     0          
N1       N      0.500000000000     0.750080000000     0.948410000000     0          
O7?      O      0.747580000000     0.747580000000     0.815900000000     0          
C2       C      0.249020000000     0.528100000000     0.926690000000     0          
C3       C      0.247150000000     0.517440000000     0.891360000000     0          
H1       H      0.246100000000     0.532200000000     0.871500000000     0          
C4       C      0.220900000000     0.635350000000     0.877720000000     0          
H2       H      0.200600000000     0.648800000000     0.873400000000     0          
C6       C      0.220500000000     0.609490000000     0.903740000000     0          
H3       H      0.200000000000     0.605400000000     0.917000000000     0          
O6?      O      0.228600000000     0.681000000000     0.821370000000     0          
Zr2?     Zr     0.215380000000     0.721070000000     0.784620000000     0          
N1       N      0.249920000000     0.500000000000     0.948410000000     0          
O7?      O      0.252420000000     0.747580000000     0.815900000000     0          
C2       C      0.471900000000     0.249020000000     0.926690000000     0          
C3       C      0.482560000000     0.247150000000     0.891360000000     0          
H1       H      0.467800000000     0.246100000000     0.871500000000     0          
C4       C      0.364650000000     0.220900000000     0.877720000000     0          
H2       H      0.351200000000     0.200600000000     0.873400000000     0          
C6       C      0.390510000000     0.220500000000     0.903740000000     0          
H3       H      0.394600000000     0.200000000000     0.917000000000     0          
O6?      O      0.319000000000     0.228600000000     0.821370000000     0          
Zr2?     Zr     0.278930000000     0.215380000000     0.784620000000     0          
N1       N      0.500000000000     0.249920000000     0.948410000000     0          
O7?      O      0.252420000000     0.252420000000     0.815900000000     0          
C2       C      0.750980000000     0.471900000000     0.926690000000     0          
C3       C      0.752850000000     0.482560000000     0.891360000000     0          
H1       H      0.753900000000     0.467800000000     0.871500000000     0          
C4       C      0.779100000000     0.364650000000     0.877720000000     0          
H2       H      0.799400000000     0.351200000000     0.873400000000     0          
C6       C      0.779500000000     0.390510000000     0.903740000000     0          
H3       H      0.800000000000     0.394600000000     0.917000000000     0          
O6?      O      0.771400000000     0.319000000000     0.821370000000     0          
Zr2?     Zr     0.784620000000     0.278930000000     0.784620000000     0          
N1       N      0.750080000000     0.500000000000     0.948410000000     0          
O7?      O      0.747580000000     0.252420000000     0.815900000000     0          
C2       C      0.528100000000     0.249020000000     0.073310000000     0          
C3       C      0.517440000000     0.247150000000     0.108640000000     0          
H1       H      0.532200000000     0.246100000000     0.128500000000     0          
C4       C      0.635350000000     0.220900000000     0.122280000000     0          
H2       H      0.648800000000     0.200600000000     0.126600000000     0          
C6       C      0.609490000000     0.220500000000     0.096260000000     0          
H3       H      0.605400000000     0.200000000000     0.083000000000     0          
O6?      O      0.681000000000     0.228600000000     0.178630000000     0          
Zr2?     Zr     0.721070000000     0.215380000000     0.215380000000     0          
N1       N      0.500000000000     0.249920000000     0.051590000000     0          
O7?      O      0.747580000000     0.252420000000     0.184100000000     0          
C2       C      0.750980000000     0.528100000000     0.073310000000     0          
C3       C      0.752850000000     0.517440000000     0.108640000000     0          
H1       H      0.753900000000     0.532200000000     0.128500000000     0          
C4       C      0.779100000000     0.635350000000     0.122280000000     0          
H2       H      0.799400000000     0.648800000000     0.126600000000     0          
C6       C      0.779500000000     0.609490000000     0.096260000000     0          
H3       H      0.800000000000     0.605400000000     0.083000000000     0          
O6?      O      0.771400000000     0.681000000000     0.178630000000     0          
Zr2?     Zr     0.784620000000     0.721070000000     0.215380000000     0          
N1       N      0.750080000000     0.500000000000     0.051590000000     0          
O7?      O      0.747580000000     0.747580000000     0.184100000000     0          
C2       C      0.471900000000     0.750980000000     0.073310000000     0          
C3       C      0.482560000000     0.752850000000     0.108640000000     0          
H1       H      0.467800000000     0.753900000000     0.128500000000     0          
C4       C      0.364650000000     0.779100000000     0.122280000000     0          
H2       H      0.351200000000     0.799400000000     0.126600000000     0          
C6       C      0.390510000000     0.779500000000     0.096260000000     0          
H3       H      0.394600000000     0.800000000000     0.083000000000     0          
O6?      O      0.319000000000     0.771400000000     0.178630000000     0          
Zr2?     Zr     0.278930000000     0.784620000000     0.215380000000     0          
N1       N      0.500000000000     0.750080000000     0.051590000000     0          
O7?      O      0.252420000000     0.747580000000     0.184100000000     0          
C2       C      0.249020000000     0.471900000000     0.073310000000     0          
C3       C      0.247150000000     0.482560000000     0.108640000000     0          
H1       H      0.246100000000     0.467800000000     0.128500000000     0          
C4       C      0.220900000000     0.364650000000     0.122280000000     0          
H2       H      0.200600000000     0.351200000000     0.126600000000     0          
C6       C      0.220500000000     0.390510000000     0.096260000000     0          
H3       H      0.200000000000     0.394600000000     0.083000000000     0          
O6?      O      0.228600000000     0.319000000000     0.178630000000     0          
Zr2?     Zr     0.215380000000     0.278930000000     0.215380000000     0          
N1       N      0.249920000000     0.500000000000     0.051590000000     0          
O7?      O      0.252420000000     0.252420000000     0.184100000000     0          
C2       C      0.926690000000     0.528100000000     0.750980000000     0          
C3       C      0.891360000000     0.517440000000     0.752850000000     0          
H1       H      0.871500000000     0.532200000000     0.753900000000     0          
C4       C      0.877720000000     0.635350000000     0.779100000000     0          
H2       H      0.873400000000     0.648800000000     0.799400000000     0          
C6       C      0.903740000000     0.609490000000     0.779500000000     0          
H3       H      0.917000000000     0.605400000000     0.800000000000     0          
O6?      O      0.821370000000     0.681000000000     0.771400000000     0          
Zr2?     Zr     0.784620000000     0.721070000000     0.784620000000     0          
N1       N      0.948410000000     0.500000000000     0.750080000000     0          
O7?      O      0.815900000000     0.747580000000     0.747580000000     0          
C2       C      0.926690000000     0.471900000000     0.249020000000     0          
C3       C      0.891360000000     0.482560000000     0.247150000000     0          
H1       H      0.871500000000     0.467800000000     0.246100000000     0          
C4       C      0.877720000000     0.364650000000     0.220900000000     0          
H2       H      0.873400000000     0.351200000000     0.200600000000     0          
C6       C      0.903740000000     0.390510000000     0.220500000000     0          
H3       H      0.917000000000     0.394600000000     0.200000000000     0          
O6?      O      0.821370000000     0.319000000000     0.228600000000     0          
Zr2?     Zr     0.784620000000     0.278930000000     0.215380000000     0          
N1       N      0.948410000000     0.500000000000     0.249920000000     0          
O7?      O      0.815900000000     0.252420000000     0.252420000000     0          
C2       C      0.528100000000     0.926690000000     0.249020000000     0          
C3       C      0.517440000000     0.891360000000     0.247150000000     0          
H1       H      0.532200000000     0.871500000000     0.246100000000     0          
C4       C      0.635350000000     0.877720000000     0.220900000000     0          
H2       H      0.648800000000     0.873400000000     0.200600000000     0          
C6       C      0.609490000000     0.903740000000     0.220500000000     0          
H3       H      0.605400000000     0.917000000000     0.200000000000     0          
O6?      O      0.681000000000     0.821370000000     0.228600000000     0          
Zr2?     Zr     0.721070000000     0.784620000000     0.215380000000     0          
N1       N      0.500000000000     0.948410000000     0.249920000000     0          
O7?      O      0.747580000000     0.815900000000     0.252420000000     0          
C2       C      0.073310000000     0.528100000000     0.249020000000     0          
C3       C      0.108640000000     0.517440000000     0.247150000000     0          
H1       H      0.128500000000     0.532200000000     0.246100000000     0          
C4       C      0.122280000000     0.635350000000     0.220900000000     0          
H2       H      0.126600000000     0.648800000000     0.200600000000     0          
C6       C      0.096260000000     0.609490000000     0.220500000000     0          
H3       H      0.083000000000     0.605400000000     0.200000000000     0          
O6?      O      0.178630000000     0.681000000000     0.228600000000     0          
Zr2?     Zr     0.215380000000     0.721070000000     0.215380000000     0          
N1       N      0.051590000000     0.500000000000     0.249920000000     0          
O7?      O      0.184100000000     0.747580000000     0.252420000000     0          
C2       C      0.471900000000     0.073310000000     0.249020000000     0          
C3       C      0.482560000000     0.108640000000     0.247150000000     0          
H1       H      0.467800000000     0.128500000000     0.246100000000     0          
C4       C      0.364650000000     0.122280000000     0.220900000000     0          
H2       H      0.351200000000     0.126600000000     0.200600000000     0          
C6       C      0.390510000000     0.096260000000     0.220500000000     0          
H3       H      0.394600000000     0.083000000000     0.200000000000     0          
O6?      O      0.319000000000     0.178630000000     0.228600000000     0          
Zr2?     Zr     0.278930000000     0.215380000000     0.215380000000     0          
N1       N      0.500000000000     0.051590000000     0.249920000000     0          
O7?      O      0.252420000000     0.184100000000     0.252420000000     0          
C2       C      0.073310000000     0.471900000000     0.750980000000     0          
C3       C      0.108640000000     0.482560000000     0.752850000000     0          
H1       H      0.128500000000     0.467800000000     0.753900000000     0          
C4       C      0.122280000000     0.364650000000     0.779100000000     0          
H2       H      0.126600000000     0.351200000000     0.799400000000     0          
C6       C      0.096260000000     0.390510000000     0.779500000000     0          
H3       H      0.083000000000     0.394600000000     0.800000000000     0          
O6?      O      0.178630000000     0.319000000000     0.771400000000     0          
Zr2?     Zr     0.215380000000     0.278930000000     0.784620000000     0          
N1       N      0.051590000000     0.500000000000     0.750080000000     0          
O7?      O      0.184100000000     0.252420000000     0.747580000000     0          
C2       C      0.528100000000     0.073310000000     0.750980000000     0          
C3       C      0.517440000000     0.108640000000     0.752850000000     0          
H1       H      0.532200000000     0.128500000000     0.753900000000     0          
C4       C      0.635350000000     0.122280000000     0.779100000000     0          
H2       H      0.648800000000     0.126600000000     0.799400000000     0          
C6       C      0.609490000000     0.096260000000     0.779500000000     0          
H3       H      0.605400000000     0.083000000000     0.800000000000     0          
O6?      O      0.681000000000     0.178630000000     0.771400000000     0          
Zr2?     Zr     0.721070000000     0.215380000000     0.784620000000     0          
N1       N      0.500000000000     0.051590000000     0.750080000000     0          
O7?      O      0.747580000000     0.184100000000     0.747580000000     0          
C2       C      0.471900000000     0.926690000000     0.750980000000     0          
C3       C      0.482560000000     0.891360000000     0.752850000000     0          
H1       H      0.467800000000     0.871500000000     0.753900000000     0          
C4       C      0.364650000000     0.877720000000     0.779100000000     0          
H2       H      0.351200000000     0.873400000000     0.799400000000     0          
C6       C      0.390510000000     0.903740000000     0.779500000000     0          
H3       H      0.394600000000     0.917000000000     0.800000000000     0          
O6?      O      0.319000000000     0.821370000000     0.771400000000     0          
Zr2?     Zr     0.278930000000     0.784620000000     0.784620000000     0          
N1       N      0.500000000000     0.948410000000     0.750080000000     0          
O7?      O      0.252420000000     0.815900000000     0.747580000000     0          
C2       C      0.249020000000     0.073310000000     0.471900000000     0          
C3       C      0.247150000000     0.108640000000     0.482560000000     0          
H1       H      0.246100000000     0.128500000000     0.467800000000     0          
C4       C      0.220900000000     0.122280000000     0.364650000000     0          
H2       H      0.200600000000     0.126600000000     0.351200000000     0          
C6       C      0.220500000000     0.096260000000     0.390510000000     0          
H3       H      0.200000000000     0.083000000000     0.394600000000     0          
O6?      O      0.228600000000     0.178630000000     0.319000000000     0          
C2       C      0.926690000000     0.249020000000     0.471900000000     0          
C3       C      0.891360000000     0.247150000000     0.482560000000     0          
H1       H      0.871500000000     0.246100000000     0.467800000000     0          
C4       C      0.877720000000     0.220900000000     0.364650000000     0          
H2       H      0.873400000000     0.200600000000     0.351200000000     0          
C6       C      0.903740000000     0.220500000000     0.390510000000     0          
H3       H      0.917000000000     0.200000000000     0.394600000000     0          
O6?      O      0.821370000000     0.228600000000     0.319000000000     0          
C2       C      0.750980000000     0.926690000000     0.471900000000     0          
C3       C      0.752850000000     0.891360000000     0.482560000000     0          
H1       H      0.753900000000     0.871500000000     0.467800000000     0          
C4       C      0.779100000000     0.877720000000     0.364650000000     0          
H2       H      0.799400000000     0.873400000000     0.351200000000     0          
C6       C      0.779500000000     0.903740000000     0.390510000000     0          
H3       H      0.800000000000     0.917000000000     0.394600000000     0          
O6?      O      0.771400000000     0.821370000000     0.319000000000     0          
C2       C      0.073310000000     0.750980000000     0.471900000000     0          
C3       C      0.108640000000     0.752850000000     0.482560000000     0          
H1       H      0.128500000000     0.753900000000     0.467800000000     0          
C4       C      0.122280000000     0.779100000000     0.364650000000     0          
H2       H      0.126600000000     0.799400000000     0.351200000000     0          
C6       C      0.096260000000     0.779500000000     0.390510000000     0          
H3       H      0.083000000000     0.800000000000     0.394600000000     0          
O6?      O      0.178630000000     0.771400000000     0.319000000000     0          
C2       C      0.249020000000     0.926690000000     0.528100000000     0          
C3       C      0.247150000000     0.891360000000     0.517440000000     0          
H1       H      0.246100000000     0.871500000000     0.532200000000     0          
C4       C      0.220900000000     0.877720000000     0.635350000000     0          
H2       H      0.200600000000     0.873400000000     0.648800000000     0          
C6       C      0.220500000000     0.903740000000     0.609490000000     0          
H3       H      0.200000000000     0.917000000000     0.605400000000     0          
O6?      O      0.228600000000     0.821370000000     0.681000000000     0          
C2       C      0.073310000000     0.249020000000     0.528100000000     0          
C3       C      0.108640000000     0.247150000000     0.517440000000     0          
H1       H      0.128500000000     0.246100000000     0.532200000000     0          
C4       C      0.122280000000     0.220900000000     0.635350000000     0          
H2       H      0.126600000000     0.200600000000     0.648800000000     0          
C6       C      0.096260000000     0.220500000000     0.609490000000     0          
H3       H      0.083000000000     0.200000000000     0.605400000000     0          
O6?      O      0.178630000000     0.228600000000     0.681000000000     0          
C2       C      0.750980000000     0.073310000000     0.528100000000     0          
C3       C      0.752850000000     0.108640000000     0.517440000000     0          
H1       H      0.753900000000     0.128500000000     0.532200000000     0          
C4       C      0.779100000000     0.122280000000     0.635350000000     0          
H2       H      0.799400000000     0.126600000000     0.648800000000     0          
C6       C      0.779500000000     0.096260000000     0.609490000000     0          
H3       H      0.800000000000     0.083000000000     0.605400000000     0          
O6?      O      0.771400000000     0.178630000000     0.681000000000     0          
C2       C      0.926690000000     0.750980000000     0.528100000000     0          
C3       C      0.891360000000     0.752850000000     0.517440000000     0          
H1       H      0.871500000000     0.753900000000     0.532200000000     0          
C4       C      0.877720000000     0.779100000000     0.635350000000     0          
H2       H      0.873400000000     0.799400000000     0.648800000000     0          
C6       C      0.903740000000     0.779500000000     0.609490000000     0          
H3       H      0.917000000000     0.800000000000     0.605400000000     0          
O6?      O      0.821370000000     0.771400000000     0.681000000000     0          
C2       C      0.471900000000     0.249020000000     0.073310000000     0          
C3       C      0.482560000000     0.247150000000     0.108640000000     0          
H1       H      0.467800000000     0.246100000000     0.128500000000     0          
C4       C      0.364650000000     0.220900000000     0.122280000000     0          
H2       H      0.351200000000     0.200600000000     0.126600000000     0          
C6       C      0.390510000000     0.220500000000     0.096260000000     0          
H3       H      0.394600000000     0.200000000000     0.083000000000     0          
O6?      O      0.319000000000     0.228600000000     0.178630000000     0          
C2       C      0.750980000000     0.471900000000     0.073310000000     0          
C3       C      0.752850000000     0.482560000000     0.108640000000     0          
H1       H      0.753900000000     0.467800000000     0.128500000000     0          
C4       C      0.779100000000     0.364650000000     0.122280000000     0          
H2       H      0.799400000000     0.351200000000     0.126600000000     0          
C6       C      0.779500000000     0.390510000000     0.096260000000     0          
H3       H      0.800000000000     0.394600000000     0.083000000000     0          
O6?      O      0.771400000000     0.319000000000     0.178630000000     0          
C2       C      0.528100000000     0.750980000000     0.073310000000     0          
C3       C      0.517440000000     0.752850000000     0.108640000000     0          
H1       H      0.532200000000     0.753900000000     0.128500000000     0          
C4       C      0.635350000000     0.779100000000     0.122280000000     0          
H2       H      0.648800000000     0.799400000000     0.126600000000     0          
C6       C      0.609490000000     0.779500000000     0.096260000000     0          
H3       H      0.605400000000     0.800000000000     0.083000000000     0          
O6?      O      0.681000000000     0.771400000000     0.178630000000     0          
C2       C      0.249020000000     0.528100000000     0.073310000000     0          
C3       C      0.247150000000     0.517440000000     0.108640000000     0          
H1       H      0.246100000000     0.532200000000     0.128500000000     0          
C4       C      0.220900000000     0.635350000000     0.122280000000     0          
H2       H      0.200600000000     0.648800000000     0.126600000000     0          
C6       C      0.220500000000     0.609490000000     0.096260000000     0          
H3       H      0.200000000000     0.605400000000     0.083000000000     0          
O6?      O      0.228600000000     0.681000000000     0.178630000000     0          
C2       C      0.471900000000     0.750980000000     0.926690000000     0          
C3       C      0.482560000000     0.752850000000     0.891360000000     0          
H1       H      0.467800000000     0.753900000000     0.871500000000     0          
C4       C      0.364650000000     0.779100000000     0.877720000000     0          
H2       H      0.351200000000     0.799400000000     0.873400000000     0          
C6       C      0.390510000000     0.779500000000     0.903740000000     0          
H3       H      0.394600000000     0.800000000000     0.917000000000     0          
O6?      O      0.319000000000     0.771400000000     0.821370000000     0          
C2       C      0.249020000000     0.471900000000     0.926690000000     0          
C3       C      0.247150000000     0.482560000000     0.891360000000     0          
H1       H      0.246100000000     0.467800000000     0.871500000000     0          
C4       C      0.220900000000     0.364650000000     0.877720000000     0          
H2       H      0.200600000000     0.351200000000     0.873400000000     0          
C6       C      0.220500000000     0.390510000000     0.903740000000     0          
H3       H      0.200000000000     0.394600000000     0.917000000000     0          
O6?      O      0.228600000000     0.319000000000     0.821370000000     0          
C2       C      0.528100000000     0.249020000000     0.926690000000     0          
C3       C      0.517440000000     0.247150000000     0.891360000000     0          
H1       H      0.532200000000     0.246100000000     0.871500000000     0          
C4       C      0.635350000000     0.220900000000     0.877720000000     0          
H2       H      0.648800000000     0.200600000000     0.873400000000     0          
C6       C      0.609490000000     0.220500000000     0.903740000000     0          
H3       H      0.605400000000     0.200000000000     0.917000000000     0          
O6?      O      0.681000000000     0.228600000000     0.821370000000     0          
C2       C      0.750980000000     0.528100000000     0.926690000000     0          
C3       C      0.752850000000     0.517440000000     0.891360000000     0          
H1       H      0.753900000000     0.532200000000     0.871500000000     0          
C4       C      0.779100000000     0.635350000000     0.877720000000     0          
H2       H      0.799400000000     0.648800000000     0.873400000000     0          
C6       C      0.779500000000     0.609490000000     0.903740000000     0          
H3       H      0.800000000000     0.605400000000     0.917000000000     0          
O6?      O      0.771400000000     0.681000000000     0.821370000000     0          
C2       C      0.073310000000     0.471900000000     0.249020000000     0          
C3       C      0.108640000000     0.482560000000     0.247150000000     0          
H1       H      0.128500000000     0.467800000000     0.246100000000     0          
C4       C      0.122280000000     0.364650000000     0.220900000000     0          
H2       H      0.126600000000     0.351200000000     0.200600000000     0          
C6       C      0.096260000000     0.390510000000     0.220500000000     0          
H3       H      0.083000000000     0.394600000000     0.200000000000     0          
O6?      O      0.178630000000     0.319000000000     0.228600000000     0          
C2       C      0.073310000000     0.528100000000     0.750980000000     0          
C3       C      0.108640000000     0.517440000000     0.752850000000     0          
H1       H      0.128500000000     0.532200000000     0.753900000000     0          
C4       C      0.122280000000     0.635350000000     0.779100000000     0          
H2       H      0.126600000000     0.648800000000     0.799400000000     0          
C6       C      0.096260000000     0.609490000000     0.779500000000     0          
H3       H      0.083000000000     0.605400000000     0.800000000000     0          
O6?      O      0.178630000000     0.681000000000     0.771400000000     0          
C2       C      0.471900000000     0.073310000000     0.750980000000     0          
C3       C      0.482560000000     0.108640000000     0.752850000000     0          
H1       H      0.467800000000     0.128500000000     0.753900000000     0          
C4       C      0.364650000000     0.122280000000     0.779100000000     0          
H2       H      0.351200000000     0.126600000000     0.799400000000     0          
C6       C      0.390510000000     0.096260000000     0.779500000000     0          
H3       H      0.394600000000     0.083000000000     0.800000000000     0          
O6?      O      0.319000000000     0.178630000000     0.771400000000     0          
C2       C      0.926690000000     0.471900000000     0.750980000000     0          
C3       C      0.891360000000     0.482560000000     0.752850000000     0          
H1       H      0.871500000000     0.467800000000     0.753900000000     0          
C4       C      0.877720000000     0.364650000000     0.779100000000     0          
H2       H      0.873400000000     0.351200000000     0.799400000000     0          
C6       C      0.903740000000     0.390510000000     0.779500000000     0          
H3       H      0.917000000000     0.394600000000     0.800000000000     0          
O6?      O      0.821370000000     0.319000000000     0.771400000000     0          
C2       C      0.528100000000     0.926690000000     0.750980000000     0          
C3       C      0.517440000000     0.891360000000     0.752850000000     0          
H1       H      0.532200000000     0.871500000000     0.753900000000     0          
C4       C      0.635350000000     0.877720000000     0.779100000000     0          
H2       H      0.648800000000     0.873400000000     0.799400000000     0          
C6       C      0.609490000000     0.903740000000     0.779500000000     0          
H3       H      0.605400000000     0.917000000000     0.800000000000     0          
O6?      O      0.681000000000     0.821370000000     0.771400000000     0          
C2       C      0.926690000000     0.528100000000     0.249020000000     0          
C3       C      0.891360000000     0.517440000000     0.247150000000     0          
H1       H      0.871500000000     0.532200000000     0.246100000000     0          
C4       C      0.877720000000     0.635350000000     0.220900000000     0          
H2       H      0.873400000000     0.648800000000     0.200600000000     0          
C6       C      0.903740000000     0.609490000000     0.220500000000     0          
H3       H      0.917000000000     0.605400000000     0.200000000000     0          
O6?      O      0.821370000000     0.681000000000     0.228600000000     0          
C2       C      0.471900000000     0.926690000000     0.249020000000     0          
C3       C      0.482560000000     0.891360000000     0.247150000000     0          
H1       H      0.467800000000     0.871500000000     0.246100000000     0          
C4       C      0.364650000000     0.877720000000     0.220900000000     0          
H2       H      0.351200000000     0.873400000000     0.200600000000     0          
C6       C      0.390510000000     0.903740000000     0.220500000000     0          
H3       H      0.394600000000     0.917000000000     0.200000000000     0          
O6?      O      0.319000000000     0.821370000000     0.228600000000     0          
C2       C      0.528100000000     0.073310000000     0.249020000000     0          
C3       C      0.517440000000     0.108640000000     0.247150000000     0          
H1       H      0.532200000000     0.128500000000     0.246100000000     0          
C4       C      0.635350000000     0.122280000000     0.220900000000     0          
H2       H      0.648800000000     0.126600000000     0.200600000000     0          
C6       C      0.609490000000     0.096260000000     0.220500000000     0          
H3       H      0.605400000000     0.083000000000     0.200000000000     0          
O6?      O      0.681000000000     0.178630000000     0.228600000000     0          


