data_OQUFAJ02

_audit_creation_method RASPA-1.0
_audit_creation_date 2020-12-14
_audit_author_name 'Rocio Bueno-Perez'

_cell_length_a    34.9195
_cell_length_b    34.9195
_cell_length_c    12.0592
_cell_angle_alpha 90
_cell_angle_beta  90
_cell_angle_gamma 90
_cell_volume      14704.6

_symmetry_cell_setting          triclinic
_symmetry_space_group_name_Hall 'P 1'
_symmetry_space_group_name_H-M  'P 1'
_symmetry_Int_Tables_number     1

_symmetry_equiv_pos_as_xyz 'x,y,z'

loop_
_atom_site_label
_atom_site_type_symbol
_atom_site_fract_x
_atom_site_fract_y
_atom_site_fract_z
_atom_site_charge
O1       O      0.090560000000     0.553770000000     0.638700000000     0          
O2       O      0.074220000000     0.507200000000     0.760500000000     0          
O3       O      0.394380000000     0.539760000000     0.927600000000     0          
O4       O      0.394710000000     0.478500000000     0.869600000000     0          
O5       O      0.989530000000     0.558500000000     0.456200000000     0          
O6       O      0.034630000000     0.513490000000     0.359000000000     0          
C7       C      0.097800000000     0.531600000000     0.716100000000     0          
C8       C      0.138800000000     0.530000000000     0.756300000000     0          
C9       C      0.148800000000     0.511500000000     0.852000000000     0          
H10      H      0.125710000000     0.498370000000     0.906970000000     0          
C11      C      0.187000000000     0.508000000000     0.885700000000     0          
C12      C      0.215000000000     0.523700000000     0.818700000000     0          
C13      C      0.204400000000     0.542300000000     0.722300000000     0          
C14      C      0.166500000000     0.544800000000     0.691800000000     0          
H15      H      0.158730000000     0.559650000000     0.610680000000     0          
C16      C      0.256700000000     0.520200000000     0.840500000000     0          
C17      C      0.278600000000     0.550800000000     0.879500000000     0          
C18      C      0.317700000000     0.545600000000     0.892100000000     0          
H19      H      0.336340000000     0.570170000000     0.923130000000     0          
C20      C      0.336700000000     0.513000000000     0.870400000000     0          
C21      C      0.316100000000     0.481900000000     0.831800000000     0          
H22      H      0.331250000000     0.453570000000     0.814920000000     0          
C23      C      0.276100000000     0.485700000000     0.813600000000     0          
C24      C      0.378000000000     0.509800000000     0.889000000000     0          
F25      F      0.228900000000     0.440800000000     0.874000000000     0          
F26      F      0.275500000000     0.418400000000     0.783000000000     0          
F27      F      0.232600000000     0.449900000000     0.701000000000     0          
C28      C      0.254400000000     0.451100000000     0.794000000000     0          
F29      F      0.264000000000     0.530000000000     0.643000000000     0          
C30      C      0.234500000000     0.554000000000     0.644000000000     0          
F31      F      0.249000000000     0.588000000000     0.665000000000     0          
F32      F      0.223000000000     0.555000000000     0.539000000000     0          
H33      H      0.194230000000     0.492550000000     0.966310000000     0          
H34      H      0.264260000000     0.579240000000     0.900170000000     0          
O35      O      0.409440000000     0.946230000000     0.638700000000     0          
O36      O      0.425780000000     0.992800000000     0.760500000000     0          
O37      O      0.105620000000     0.960240000000     0.927600000000     0          
O38      O      0.105290000000     0.021500000000     0.869600000000     0          
O39      O      0.510470000000     0.941500000000     0.456200000000     0          
O40      O      0.465370000000     0.986510000000     0.359000000000     0          
C41      C      0.402200000000     0.968400000000     0.716100000000     0          
C42      C      0.361200000000     0.970000000000     0.756300000000     0          
C43      C      0.351200000000     0.988500000000     0.852000000000     0          
H44      H      0.374290000000     0.001630000000     0.906970000000     0          
C45      C      0.313000000000     0.992000000000     0.885700000000     0          
C46      C      0.285000000000     0.976300000000     0.818700000000     0          
C47      C      0.295600000000     0.957700000000     0.722300000000     0          
C48      C      0.333500000000     0.955200000000     0.691800000000     0          
H49      H      0.341270000000     0.940350000000     0.610680000000     0          
C50      C      0.243300000000     0.979800000000     0.840500000000     0          
C51      C      0.221400000000     0.949200000000     0.879500000000     0          
C52      C      0.182300000000     0.954400000000     0.892100000000     0          
H53      H      0.163660000000     0.929830000000     0.923130000000     0          
C54      C      0.163300000000     0.987000000000     0.870400000000     0          
C55      C      0.183900000000     0.018100000000     0.831800000000     0          
H56      H      0.168750000000     0.046430000000     0.814920000000     0          
C57      C      0.223900000000     0.014300000000     0.813600000000     0          
C58      C      0.122000000000     0.990200000000     0.889000000000     0          
F59      F      0.271100000000     0.059200000000     0.874000000000     0          
F60      F      0.224500000000     0.081600000000     0.783000000000     0          
F61      F      0.267400000000     0.050100000000     0.701000000000     0          
C62      C      0.245600000000     0.048900000000     0.794000000000     0          
F63      F      0.236000000000     0.970000000000     0.643000000000     0          
C64      C      0.265500000000     0.946000000000     0.644000000000     0          
F65      F      0.251000000000     0.912000000000     0.665000000000     0          
F66      F      0.277000000000     0.945000000000     0.539000000000     0          
H67      H      0.305770000000     0.007450000000     0.966310000000     0          
H68      H      0.235740000000     0.920760000000     0.900170000000     0          
O69      O      0.946230000000     0.090560000000     0.138700000000     0          
O70      O      0.992800000000     0.074220000000     0.260500000000     0          
O71      O      0.960240000000     0.394380000000     0.427600000000     0          
O72      O      0.021500000000     0.394710000000     0.369600000000     0          
O73      O      0.941500000000     0.989530000000     0.956200000000     0          
O74      O      0.986510000000     0.034630000000     0.859000000000     0          
C75      C      0.968400000000     0.097800000000     0.216100000000     0          
C76      C      0.970000000000     0.138800000000     0.256300000000     0          
C77      C      0.988500000000     0.148800000000     0.352000000000     0          
H78      H      0.001630000000     0.125710000000     0.406970000000     0          
C79      C      0.992000000000     0.187000000000     0.385700000000     0          
C80      C      0.976300000000     0.215000000000     0.318700000000     0          
C81      C      0.957700000000     0.204400000000     0.222300000000     0          
C82      C      0.955200000000     0.166500000000     0.191800000000     0          
H83      H      0.940350000000     0.158730000000     0.110680000000     0          
C84      C      0.979800000000     0.256700000000     0.340500000000     0          
C85      C      0.949200000000     0.278600000000     0.379500000000     0          
C86      C      0.954400000000     0.317700000000     0.392100000000     0          
H87      H      0.929830000000     0.336340000000     0.423130000000     0          
C88      C      0.987000000000     0.336700000000     0.370400000000     0          
C89      C      0.018100000000     0.316100000000     0.331800000000     0          
H90      H      0.046430000000     0.331250000000     0.314920000000     0          
C91      C      0.014300000000     0.276100000000     0.313600000000     0          
C92      C      0.990200000000     0.378000000000     0.389000000000     0          
F93      F      0.059200000000     0.228900000000     0.374000000000     0          
F94      F      0.081600000000     0.275500000000     0.283000000000     0          
F95      F      0.050100000000     0.232600000000     0.201000000000     0          
C96      C      0.048900000000     0.254400000000     0.294000000000     0          
F97      F      0.970000000000     0.264000000000     0.143000000000     0          
C98      C      0.946000000000     0.234500000000     0.144000000000     0          
F99      F      0.912000000000     0.249000000000     0.165000000000     0          
F100     F      0.945000000000     0.223000000000     0.039000000000     0          
H101     H      0.007450000000     0.194230000000     0.466310000000     0          
H102     H      0.920760000000     0.264260000000     0.400170000000     0          
O103     O      0.553770000000     0.409440000000     0.138700000000     0          
O104     O      0.507200000000     0.425780000000     0.260500000000     0          
O105     O      0.539760000000     0.105620000000     0.427600000000     0          
O106     O      0.478500000000     0.105290000000     0.369600000000     0          
O107     O      0.558500000000     0.510470000000     0.956200000000     0          
O108     O      0.513490000000     0.465370000000     0.859000000000     0          
C109     C      0.531600000000     0.402200000000     0.216100000000     0          
C110     C      0.530000000000     0.361200000000     0.256300000000     0          
C111     C      0.511500000000     0.351200000000     0.352000000000     0          
H112     H      0.498370000000     0.374290000000     0.406970000000     0          
C113     C      0.508000000000     0.313000000000     0.385700000000     0          
C114     C      0.523700000000     0.285000000000     0.318700000000     0          
C115     C      0.542300000000     0.295600000000     0.222300000000     0          
C116     C      0.544800000000     0.333500000000     0.191800000000     0          
H117     H      0.559650000000     0.341270000000     0.110680000000     0          
C118     C      0.520200000000     0.243300000000     0.340500000000     0          
C119     C      0.550800000000     0.221400000000     0.379500000000     0          
C120     C      0.545600000000     0.182300000000     0.392100000000     0          
H121     H      0.570170000000     0.163660000000     0.423130000000     0          
C122     C      0.513000000000     0.163300000000     0.370400000000     0          
C123     C      0.481900000000     0.183900000000     0.331800000000     0          
H124     H      0.453570000000     0.168750000000     0.314920000000     0          
C125     C      0.485700000000     0.223900000000     0.313600000000     0          
C126     C      0.509800000000     0.122000000000     0.389000000000     0          
F127     F      0.440800000000     0.271100000000     0.374000000000     0          
F128     F      0.418400000000     0.224500000000     0.283000000000     0          
F129     F      0.449900000000     0.267400000000     0.201000000000     0          
C130     C      0.451100000000     0.245600000000     0.294000000000     0          
F131     F      0.530000000000     0.236000000000     0.143000000000     0          
C132     C      0.554000000000     0.265500000000     0.144000000000     0          
F133     F      0.588000000000     0.251000000000     0.165000000000     0          
F134     F      0.555000000000     0.277000000000     0.039000000000     0          
H135     H      0.492550000000     0.305770000000     0.466310000000     0          
H136     H      0.579240000000     0.235740000000     0.400170000000     0          
O137     O      0.909440000000     0.053770000000     0.861300000000     0          
O138     O      0.925780000000     0.007200000000     0.739500000000     0          
O139     O      0.605620000000     0.039760000000     0.572400000000     0          
O140     O      0.605290000000     0.978500000000     0.630400000000     0          
O141     O      0.010470000000     0.058500000000     0.043800000000     0          
O142     O      0.965370000000     0.013490000000     0.141000000000     0          
C143     C      0.902200000000     0.031600000000     0.783900000000     0          
C144     C      0.861200000000     0.030000000000     0.743700000000     0          
C145     C      0.851200000000     0.011500000000     0.648000000000     0          
H146     H      0.874290000000     0.998370000000     0.593030000000     0          
C147     C      0.813000000000     0.008000000000     0.614300000000     0          
C148     C      0.785000000000     0.023700000000     0.681300000000     0          
C149     C      0.795600000000     0.042300000000     0.777700000000     0          
C150     C      0.833500000000     0.044800000000     0.808200000000     0          
H151     H      0.841270000000     0.059650000000     0.889320000000     0          
C152     C      0.743300000000     0.020200000000     0.659500000000     0          
C153     C      0.721400000000     0.050800000000     0.620500000000     0          
C154     C      0.682300000000     0.045600000000     0.607900000000     0          
H155     H      0.663660000000     0.070170000000     0.576870000000     0          
C156     C      0.663300000000     0.013000000000     0.629600000000     0          
C157     C      0.683900000000     0.981900000000     0.668200000000     0          
H158     H      0.668750000000     0.953570000000     0.685080000000     0          
C159     C      0.723900000000     0.985700000000     0.686400000000     0          
C160     C      0.622000000000     0.009800000000     0.611000000000     0          
F161     F      0.771100000000     0.940800000000     0.626000000000     0          
F162     F      0.724500000000     0.918400000000     0.717000000000     0          
F163     F      0.767400000000     0.949900000000     0.799000000000     0          
C164     C      0.745600000000     0.951100000000     0.706000000000     0          
F165     F      0.736000000000     0.030000000000     0.857000000000     0          
C166     C      0.765500000000     0.054000000000     0.856000000000     0          
F167     F      0.751000000000     0.088000000000     0.835000000000     0          
F168     F      0.777000000000     0.055000000000     0.961000000000     0          
H169     H      0.805770000000     0.992550000000     0.533690000000     0          
H170     H      0.735740000000     0.079240000000     0.599830000000     0          
O171     O      0.590560000000     0.446230000000     0.861300000000     0          
O172     O      0.574220000000     0.492800000000     0.739500000000     0          
O173     O      0.894380000000     0.460240000000     0.572400000000     0          
O174     O      0.894710000000     0.521500000000     0.630400000000     0          
O175     O      0.489530000000     0.441500000000     0.043800000000     0          
O176     O      0.534630000000     0.486510000000     0.141000000000     0          
C177     C      0.597800000000     0.468400000000     0.783900000000     0          
C178     C      0.638800000000     0.470000000000     0.743700000000     0          
C179     C      0.648800000000     0.488500000000     0.648000000000     0          
H180     H      0.625710000000     0.501630000000     0.593030000000     0          
C181     C      0.687000000000     0.492000000000     0.614300000000     0          
C182     C      0.715000000000     0.476300000000     0.681300000000     0          
C183     C      0.704400000000     0.457700000000     0.777700000000     0          
C184     C      0.666500000000     0.455200000000     0.808200000000     0          
H185     H      0.658730000000     0.440350000000     0.889320000000     0          
C186     C      0.756700000000     0.479800000000     0.659500000000     0          
C187     C      0.778600000000     0.449200000000     0.620500000000     0          
C188     C      0.817700000000     0.454400000000     0.607900000000     0          
H189     H      0.836340000000     0.429830000000     0.576870000000     0          
C190     C      0.836700000000     0.487000000000     0.629600000000     0          
C191     C      0.816100000000     0.518100000000     0.668200000000     0          
H192     H      0.831250000000     0.546430000000     0.685080000000     0          
C193     C      0.776100000000     0.514300000000     0.686400000000     0          
C194     C      0.878000000000     0.490200000000     0.611000000000     0          
F195     F      0.728900000000     0.559200000000     0.626000000000     0          
F196     F      0.775500000000     0.581600000000     0.717000000000     0          
F197     F      0.732600000000     0.550100000000     0.799000000000     0          
C198     C      0.754400000000     0.548900000000     0.706000000000     0          
F199     F      0.764000000000     0.470000000000     0.857000000000     0          
C200     C      0.734500000000     0.446000000000     0.856000000000     0          
F201     F      0.749000000000     0.412000000000     0.835000000000     0          
F202     F      0.723000000000     0.445000000000     0.961000000000     0          
H203     H      0.694230000000     0.507450000000     0.533690000000     0          
H204     H      0.764260000000     0.420760000000     0.599830000000     0          
O205     O      0.053770000000     0.590560000000     0.361300000000     0          
O206     O      0.007200000000     0.574220000000     0.239500000000     0          
O207     O      0.039760000000     0.894380000000     0.072400000000     0          
O208     O      0.978500000000     0.894710000000     0.130400000000     0          
O209     O      0.058500000000     0.489530000000     0.543800000000     0          
O210     O      0.013490000000     0.534630000000     0.641000000000     0          
C211     C      0.031600000000     0.597800000000     0.283900000000     0          
C212     C      0.030000000000     0.638800000000     0.243700000000     0          
C213     C      0.011500000000     0.648800000000     0.148000000000     0          
H214     H      0.998370000000     0.625710000000     0.093030000000     0          
C215     C      0.008000000000     0.687000000000     0.114300000000     0          
C216     C      0.023700000000     0.715000000000     0.181300000000     0          
C217     C      0.042300000000     0.704400000000     0.277700000000     0          
C218     C      0.044800000000     0.666500000000     0.308200000000     0          
H219     H      0.059650000000     0.658730000000     0.389320000000     0          
C220     C      0.020200000000     0.756700000000     0.159500000000     0          
C221     C      0.050800000000     0.778600000000     0.120500000000     0          
C222     C      0.045600000000     0.817700000000     0.107900000000     0          
H223     H      0.070170000000     0.836340000000     0.076870000000     0          
C224     C      0.013000000000     0.836700000000     0.129600000000     0          
C225     C      0.981900000000     0.816100000000     0.168200000000     0          
H226     H      0.953570000000     0.831250000000     0.185080000000     0          
C227     C      0.985700000000     0.776100000000     0.186400000000     0          
C228     C      0.009800000000     0.878000000000     0.111000000000     0          
F229     F      0.940800000000     0.728900000000     0.126000000000     0          
F230     F      0.918400000000     0.775500000000     0.217000000000     0          
F231     F      0.949900000000     0.732600000000     0.299000000000     0          
C232     C      0.951100000000     0.754400000000     0.206000000000     0          
F233     F      0.030000000000     0.764000000000     0.357000000000     0          
C234     C      0.054000000000     0.734500000000     0.356000000000     0          
F235     F      0.088000000000     0.749000000000     0.335000000000     0          
F236     F      0.055000000000     0.723000000000     0.461000000000     0          
H237     H      0.992550000000     0.694230000000     0.033690000000     0          
H238     H      0.079240000000     0.764260000000     0.099830000000     0          
O239     O      0.446230000000     0.909440000000     0.361300000000     0          
O240     O      0.492800000000     0.925780000000     0.239500000000     0          
O241     O      0.460240000000     0.605620000000     0.072400000000     0          
O242     O      0.521500000000     0.605290000000     0.130400000000     0          
O243     O      0.441500000000     0.010470000000     0.543800000000     0          
O244     O      0.486510000000     0.965370000000     0.641000000000     0          
C245     C      0.468400000000     0.902200000000     0.283900000000     0          
C246     C      0.470000000000     0.861200000000     0.243700000000     0          
C247     C      0.488500000000     0.851200000000     0.148000000000     0          
H248     H      0.501630000000     0.874290000000     0.093030000000     0          
C249     C      0.492000000000     0.813000000000     0.114300000000     0          
C250     C      0.476300000000     0.785000000000     0.181300000000     0          
C251     C      0.457700000000     0.795600000000     0.277700000000     0          
C252     C      0.455200000000     0.833500000000     0.308200000000     0          
H253     H      0.440350000000     0.841270000000     0.389320000000     0          
C254     C      0.479800000000     0.743300000000     0.159500000000     0          
C255     C      0.449200000000     0.721400000000     0.120500000000     0          
C256     C      0.454400000000     0.682300000000     0.107900000000     0          
H257     H      0.429830000000     0.663660000000     0.076870000000     0          
C258     C      0.487000000000     0.663300000000     0.129600000000     0          
C259     C      0.518100000000     0.683900000000     0.168200000000     0          
H260     H      0.546430000000     0.668750000000     0.185080000000     0          
C261     C      0.514300000000     0.723900000000     0.186400000000     0          
C262     C      0.490200000000     0.622000000000     0.111000000000     0          
F263     F      0.559200000000     0.771100000000     0.126000000000     0          
F264     F      0.581600000000     0.724500000000     0.217000000000     0          
F265     F      0.550100000000     0.767400000000     0.299000000000     0          
C266     C      0.548900000000     0.745600000000     0.206000000000     0          
F267     F      0.470000000000     0.736000000000     0.357000000000     0          
C268     C      0.446000000000     0.765500000000     0.356000000000     0          
F269     F      0.412000000000     0.751000000000     0.335000000000     0          
F270     F      0.445000000000     0.777000000000     0.461000000000     0          
H271     H      0.507450000000     0.805770000000     0.033690000000     0          
H272     H      0.420760000000     0.735740000000     0.099830000000     0          
O273     O      0.909440000000     0.446230000000     0.361300000000     0          
O274     O      0.925780000000     0.492800000000     0.239500000000     0          
O275     O      0.605620000000     0.460240000000     0.072400000000     0          
O276     O      0.605290000000     0.521500000000     0.130400000000     0          
O277     O      0.010470000000     0.441500000000     0.543800000000     0          
O278     O      0.965370000000     0.486510000000     0.641000000000     0          
C279     C      0.902200000000     0.468400000000     0.283900000000     0          
C280     C      0.861200000000     0.470000000000     0.243700000000     0          
C281     C      0.851200000000     0.488500000000     0.148000000000     0          
H282     H      0.874290000000     0.501630000000     0.093030000000     0          
C283     C      0.813000000000     0.492000000000     0.114300000000     0          
C284     C      0.785000000000     0.476300000000     0.181300000000     0          
C285     C      0.795600000000     0.457700000000     0.277700000000     0          
C286     C      0.833500000000     0.455200000000     0.308200000000     0          
H287     H      0.841270000000     0.440350000000     0.389320000000     0          
C288     C      0.743300000000     0.479800000000     0.159500000000     0          
C289     C      0.721400000000     0.449200000000     0.120500000000     0          
C290     C      0.682300000000     0.454400000000     0.107900000000     0          
H291     H      0.663660000000     0.429830000000     0.076870000000     0          
C292     C      0.663300000000     0.487000000000     0.129600000000     0          
C293     C      0.683900000000     0.518100000000     0.168200000000     0          
H294     H      0.668750000000     0.546430000000     0.185080000000     0          
C295     C      0.723900000000     0.514300000000     0.186400000000     0          
C296     C      0.622000000000     0.490200000000     0.111000000000     0          
F297     F      0.771100000000     0.559200000000     0.126000000000     0          
F298     F      0.724500000000     0.581600000000     0.217000000000     0          
F299     F      0.767400000000     0.550100000000     0.299000000000     0          
C300     C      0.745600000000     0.548900000000     0.206000000000     0          
F301     F      0.736000000000     0.470000000000     0.357000000000     0          
C302     C      0.765500000000     0.446000000000     0.356000000000     0          
F303     F      0.751000000000     0.412000000000     0.335000000000     0          
F304     F      0.777000000000     0.445000000000     0.461000000000     0          
H305     H      0.805770000000     0.507450000000     0.033690000000     0          
H306     H      0.735740000000     0.420760000000     0.099830000000     0          
O307     O      0.590560000000     0.053770000000     0.361300000000     0          
O308     O      0.574220000000     0.007200000000     0.239500000000     0          
O309     O      0.894380000000     0.039760000000     0.072400000000     0          
O310     O      0.894710000000     0.978500000000     0.130400000000     0          
O311     O      0.489530000000     0.058500000000     0.543800000000     0          
O312     O      0.534630000000     0.013490000000     0.641000000000     0          
C313     C      0.597800000000     0.031600000000     0.283900000000     0          
C314     C      0.638800000000     0.030000000000     0.243700000000     0          
C315     C      0.648800000000     0.011500000000     0.148000000000     0          
H316     H      0.625710000000     0.998370000000     0.093030000000     0          
C317     C      0.687000000000     0.008000000000     0.114300000000     0          
C318     C      0.715000000000     0.023700000000     0.181300000000     0          
C319     C      0.704400000000     0.042300000000     0.277700000000     0          
C320     C      0.666500000000     0.044800000000     0.308200000000     0          
H321     H      0.658730000000     0.059650000000     0.389320000000     0          
C322     C      0.756700000000     0.020200000000     0.159500000000     0          
C323     C      0.778600000000     0.050800000000     0.120500000000     0          
C324     C      0.817700000000     0.045600000000     0.107900000000     0          
H325     H      0.836340000000     0.070170000000     0.076870000000     0          
C326     C      0.836700000000     0.013000000000     0.129600000000     0          
C327     C      0.816100000000     0.981900000000     0.168200000000     0          
H328     H      0.831250000000     0.953570000000     0.185080000000     0          
C329     C      0.776100000000     0.985700000000     0.186400000000     0          
C330     C      0.878000000000     0.009800000000     0.111000000000     0          
F331     F      0.728900000000     0.940800000000     0.126000000000     0          
F332     F      0.775500000000     0.918400000000     0.217000000000     0          
F333     F      0.732600000000     0.949900000000     0.299000000000     0          
C334     C      0.754400000000     0.951100000000     0.206000000000     0          
F335     F      0.764000000000     0.030000000000     0.357000000000     0          
C336     C      0.734500000000     0.054000000000     0.356000000000     0          
F337     F      0.749000000000     0.088000000000     0.335000000000     0          
F338     F      0.723000000000     0.055000000000     0.461000000000     0          
H339     H      0.694230000000     0.992550000000     0.033690000000     0          
H340     H      0.764260000000     0.079240000000     0.099830000000     0          
O341     O      0.053770000000     0.909440000000     0.861300000000     0          
O342     O      0.007200000000     0.925780000000     0.739500000000     0          
O343     O      0.039760000000     0.605620000000     0.572400000000     0          
O344     O      0.978500000000     0.605290000000     0.630400000000     0          
O345     O      0.058500000000     0.010470000000     0.043800000000     0          
O346     O      0.013490000000     0.965370000000     0.141000000000     0          
C347     C      0.031600000000     0.902200000000     0.783900000000     0          
C348     C      0.030000000000     0.861200000000     0.743700000000     0          
C349     C      0.011500000000     0.851200000000     0.648000000000     0          
H350     H      0.998370000000     0.874290000000     0.593030000000     0          
C351     C      0.008000000000     0.813000000000     0.614300000000     0          
C352     C      0.023700000000     0.785000000000     0.681300000000     0          
C353     C      0.042300000000     0.795600000000     0.777700000000     0          
C354     C      0.044800000000     0.833500000000     0.808200000000     0          
H355     H      0.059650000000     0.841270000000     0.889320000000     0          
C356     C      0.020200000000     0.743300000000     0.659500000000     0          
C357     C      0.050800000000     0.721400000000     0.620500000000     0          
C358     C      0.045600000000     0.682300000000     0.607900000000     0          
H359     H      0.070170000000     0.663660000000     0.576870000000     0          
C360     C      0.013000000000     0.663300000000     0.629600000000     0          
C361     C      0.981900000000     0.683900000000     0.668200000000     0          
H362     H      0.953570000000     0.668750000000     0.685080000000     0          
C363     C      0.985700000000     0.723900000000     0.686400000000     0          
C364     C      0.009800000000     0.622000000000     0.611000000000     0          
F365     F      0.940800000000     0.771100000000     0.626000000000     0          
F366     F      0.918400000000     0.724500000000     0.717000000000     0          
F367     F      0.949900000000     0.767400000000     0.799000000000     0          
C368     C      0.951100000000     0.745600000000     0.706000000000     0          
F369     F      0.030000000000     0.736000000000     0.857000000000     0          
C370     C      0.054000000000     0.765500000000     0.856000000000     0          
F371     F      0.088000000000     0.751000000000     0.835000000000     0          
F372     F      0.055000000000     0.777000000000     0.961000000000     0          
H373     H      0.992550000000     0.805770000000     0.533690000000     0          
H374     H      0.079240000000     0.735740000000     0.599830000000     0          
O375     O      0.446230000000     0.590560000000     0.861300000000     0          
O376     O      0.492800000000     0.574220000000     0.739500000000     0          
O377     O      0.460240000000     0.894380000000     0.572400000000     0          
O378     O      0.521500000000     0.894710000000     0.630400000000     0          
O379     O      0.441500000000     0.489530000000     0.043800000000     0          
O380     O      0.486510000000     0.534630000000     0.141000000000     0          
C381     C      0.468400000000     0.597800000000     0.783900000000     0          
C382     C      0.470000000000     0.638800000000     0.743700000000     0          
C383     C      0.488500000000     0.648800000000     0.648000000000     0          
H384     H      0.501630000000     0.625710000000     0.593030000000     0          
C385     C      0.492000000000     0.687000000000     0.614300000000     0          
C386     C      0.476300000000     0.715000000000     0.681300000000     0          
C387     C      0.457700000000     0.704400000000     0.777700000000     0          
C388     C      0.455200000000     0.666500000000     0.808200000000     0          
H389     H      0.440350000000     0.658730000000     0.889320000000     0          
C390     C      0.479800000000     0.756700000000     0.659500000000     0          
C391     C      0.449200000000     0.778600000000     0.620500000000     0          
C392     C      0.454400000000     0.817700000000     0.607900000000     0          
H393     H      0.429830000000     0.836340000000     0.576870000000     0          
C394     C      0.487000000000     0.836700000000     0.629600000000     0          
C395     C      0.518100000000     0.816100000000     0.668200000000     0          
H396     H      0.546430000000     0.831250000000     0.685080000000     0          
C397     C      0.514300000000     0.776100000000     0.686400000000     0          
C398     C      0.490200000000     0.878000000000     0.611000000000     0          
F399     F      0.559200000000     0.728900000000     0.626000000000     0          
F400     F      0.581600000000     0.775500000000     0.717000000000     0          
F401     F      0.550100000000     0.732600000000     0.799000000000     0          
C402     C      0.548900000000     0.754400000000     0.706000000000     0          
F403     F      0.470000000000     0.764000000000     0.857000000000     0          
C404     C      0.446000000000     0.734500000000     0.856000000000     0          
F405     F      0.412000000000     0.749000000000     0.835000000000     0          
F406     F      0.445000000000     0.723000000000     0.961000000000     0          
H407     H      0.507450000000     0.694230000000     0.533690000000     0          
H408     H      0.420760000000     0.764260000000     0.599830000000     0          
O409     O      0.090560000000     0.946230000000     0.138700000000     0          
O410     O      0.074220000000     0.992800000000     0.260500000000     0          
O411     O      0.394380000000     0.960240000000     0.427600000000     0          
O412     O      0.394710000000     0.021500000000     0.369600000000     0          
O413     O      0.989530000000     0.941500000000     0.956200000000     0          
O414     O      0.034630000000     0.986510000000     0.859000000000     0          
C415     C      0.097800000000     0.968400000000     0.216100000000     0          
C416     C      0.138800000000     0.970000000000     0.256300000000     0          
C417     C      0.148800000000     0.988500000000     0.352000000000     0          
H418     H      0.125710000000     0.001630000000     0.406970000000     0          
C419     C      0.187000000000     0.992000000000     0.385700000000     0          
C420     C      0.215000000000     0.976300000000     0.318700000000     0          
C421     C      0.204400000000     0.957700000000     0.222300000000     0          
C422     C      0.166500000000     0.955200000000     0.191800000000     0          
H423     H      0.158730000000     0.940350000000     0.110680000000     0          
C424     C      0.256700000000     0.979800000000     0.340500000000     0          
C425     C      0.278600000000     0.949200000000     0.379500000000     0          
C426     C      0.317700000000     0.954400000000     0.392100000000     0          
H427     H      0.336340000000     0.929830000000     0.423130000000     0          
C428     C      0.336700000000     0.987000000000     0.370400000000     0          
C429     C      0.316100000000     0.018100000000     0.331800000000     0          
H430     H      0.331250000000     0.046430000000     0.314920000000     0          
C431     C      0.276100000000     0.014300000000     0.313600000000     0          
C432     C      0.378000000000     0.990200000000     0.389000000000     0          
F433     F      0.228900000000     0.059200000000     0.374000000000     0          
F434     F      0.275500000000     0.081600000000     0.283000000000     0          
F435     F      0.232600000000     0.050100000000     0.201000000000     0          
C436     C      0.254400000000     0.048900000000     0.294000000000     0          
F437     F      0.264000000000     0.970000000000     0.143000000000     0          
C438     C      0.234500000000     0.946000000000     0.144000000000     0          
F439     F      0.249000000000     0.912000000000     0.165000000000     0          
F440     F      0.223000000000     0.945000000000     0.039000000000     0          
H441     H      0.194230000000     0.007450000000     0.466310000000     0          
H442     H      0.264260000000     0.920760000000     0.400170000000     0          
O443     O      0.409440000000     0.553770000000     0.138700000000     0          
O444     O      0.425780000000     0.507200000000     0.260500000000     0          
O445     O      0.105620000000     0.539760000000     0.427600000000     0          
O446     O      0.105290000000     0.478500000000     0.369600000000     0          
O447     O      0.510470000000     0.558500000000     0.956200000000     0          
O448     O      0.465370000000     0.513490000000     0.859000000000     0          
C449     C      0.402200000000     0.531600000000     0.216100000000     0          
C450     C      0.361200000000     0.530000000000     0.256300000000     0          
C451     C      0.351200000000     0.511500000000     0.352000000000     0          
H452     H      0.374290000000     0.498370000000     0.406970000000     0          
C453     C      0.313000000000     0.508000000000     0.385700000000     0          
C454     C      0.285000000000     0.523700000000     0.318700000000     0          
C455     C      0.295600000000     0.542300000000     0.222300000000     0          
C456     C      0.333500000000     0.544800000000     0.191800000000     0          
H457     H      0.341270000000     0.559650000000     0.110680000000     0          
C458     C      0.243300000000     0.520200000000     0.340500000000     0          
C459     C      0.221400000000     0.550800000000     0.379500000000     0          
C460     C      0.182300000000     0.545600000000     0.392100000000     0          
H461     H      0.163660000000     0.570170000000     0.423130000000     0          
C462     C      0.163300000000     0.513000000000     0.370400000000     0          
C463     C      0.183900000000     0.481900000000     0.331800000000     0          
H464     H      0.168750000000     0.453570000000     0.314920000000     0          
C465     C      0.223900000000     0.485700000000     0.313600000000     0          
C466     C      0.122000000000     0.509800000000     0.389000000000     0          
F467     F      0.271100000000     0.440800000000     0.374000000000     0          
F468     F      0.224500000000     0.418400000000     0.283000000000     0          
F469     F      0.267400000000     0.449900000000     0.201000000000     0          
C470     C      0.245600000000     0.451100000000     0.294000000000     0          
F471     F      0.236000000000     0.530000000000     0.143000000000     0          
C472     C      0.265500000000     0.554000000000     0.144000000000     0          
F473     F      0.251000000000     0.588000000000     0.165000000000     0          
F474     F      0.277000000000     0.555000000000     0.039000000000     0          
H475     H      0.305770000000     0.492550000000     0.466310000000     0          
H476     H      0.235740000000     0.579240000000     0.400170000000     0          
O477     O      0.946230000000     0.409440000000     0.638700000000     0          
O478     O      0.992800000000     0.425780000000     0.760500000000     0          
O479     O      0.960240000000     0.105620000000     0.927600000000     0          
O480     O      0.021500000000     0.105290000000     0.869600000000     0          
O481     O      0.941500000000     0.510470000000     0.456200000000     0          
O482     O      0.986510000000     0.465370000000     0.359000000000     0          
C483     C      0.968400000000     0.402200000000     0.716100000000     0          
C484     C      0.970000000000     0.361200000000     0.756300000000     0          
C485     C      0.988500000000     0.351200000000     0.852000000000     0          
H486     H      0.001630000000     0.374290000000     0.906970000000     0          
C487     C      0.992000000000     0.313000000000     0.885700000000     0          
C488     C      0.976300000000     0.285000000000     0.818700000000     0          
C489     C      0.957700000000     0.295600000000     0.722300000000     0          
C490     C      0.955200000000     0.333500000000     0.691800000000     0          
H491     H      0.940350000000     0.341270000000     0.610680000000     0          
C492     C      0.979800000000     0.243300000000     0.840500000000     0          
C493     C      0.949200000000     0.221400000000     0.879500000000     0          
C494     C      0.954400000000     0.182300000000     0.892100000000     0          
H495     H      0.929830000000     0.163660000000     0.923130000000     0          
C496     C      0.987000000000     0.163300000000     0.870400000000     0          
C497     C      0.018100000000     0.183900000000     0.831800000000     0          
H498     H      0.046430000000     0.168750000000     0.814920000000     0          
C499     C      0.014300000000     0.223900000000     0.813600000000     0          
C500     C      0.990200000000     0.122000000000     0.889000000000     0          
F501     F      0.059200000000     0.271100000000     0.874000000000     0          
F502     F      0.081600000000     0.224500000000     0.783000000000     0          
F503     F      0.050100000000     0.267400000000     0.701000000000     0          
C504     C      0.048900000000     0.245600000000     0.794000000000     0          
F505     F      0.970000000000     0.236000000000     0.643000000000     0          
C506     C      0.946000000000     0.265500000000     0.644000000000     0          
F507     F      0.912000000000     0.251000000000     0.665000000000     0          
F508     F      0.945000000000     0.277000000000     0.539000000000     0          
H509     H      0.007450000000     0.305770000000     0.966310000000     0          
H510     H      0.920760000000     0.235740000000     0.900170000000     0          
O511     O      0.553770000000     0.090560000000     0.638700000000     0          
O512     O      0.507200000000     0.074220000000     0.760500000000     0          
O513     O      0.539760000000     0.394380000000     0.927600000000     0          
O514     O      0.478500000000     0.394710000000     0.869600000000     0          
O515     O      0.558500000000     0.989530000000     0.456200000000     0          
O516     O      0.513490000000     0.034630000000     0.359000000000     0          
C517     C      0.531600000000     0.097800000000     0.716100000000     0          
C518     C      0.530000000000     0.138800000000     0.756300000000     0          
C519     C      0.511500000000     0.148800000000     0.852000000000     0          
H520     H      0.498370000000     0.125710000000     0.906970000000     0          
C521     C      0.508000000000     0.187000000000     0.885700000000     0          
C522     C      0.523700000000     0.215000000000     0.818700000000     0          
C523     C      0.542300000000     0.204400000000     0.722300000000     0          
C524     C      0.544800000000     0.166500000000     0.691800000000     0          
H525     H      0.559650000000     0.158730000000     0.610680000000     0          
C526     C      0.520200000000     0.256700000000     0.840500000000     0          
C527     C      0.550800000000     0.278600000000     0.879500000000     0          
C528     C      0.545600000000     0.317700000000     0.892100000000     0          
H529     H      0.570170000000     0.336340000000     0.923130000000     0          
C530     C      0.513000000000     0.336700000000     0.870400000000     0          
C531     C      0.481900000000     0.316100000000     0.831800000000     0          
H532     H      0.453570000000     0.331250000000     0.814920000000     0          
C533     C      0.485700000000     0.276100000000     0.813600000000     0          
C534     C      0.509800000000     0.378000000000     0.889000000000     0          
F535     F      0.440800000000     0.228900000000     0.874000000000     0          
F536     F      0.418400000000     0.275500000000     0.783000000000     0          
F537     F      0.449900000000     0.232600000000     0.701000000000     0          
C538     C      0.451100000000     0.254400000000     0.794000000000     0          
F539     F      0.530000000000     0.264000000000     0.643000000000     0          
C540     C      0.554000000000     0.234500000000     0.644000000000     0          
F541     F      0.588000000000     0.249000000000     0.665000000000     0          
F542     F      0.555000000000     0.223000000000     0.539000000000     0          
H543     H      0.492550000000     0.194230000000     0.966310000000     0          
H544     H      0.579240000000     0.264260000000     0.900170000000     0          
Zr545    Zr     0.049730000000     0.549730000000     0.500000000000     0          
Zr546    Zr     0.450270000000     0.950270000000     0.500000000000     0          
Zr547    Zr     0.950270000000     0.049730000000     0.000000000000     0          
Zr548    Zr     0.549730000000     0.450270000000     0.000000000000     0          
Zr549    Zr     0.950270000000     0.450270000000     0.500000000000     0          
Zr550    Zr     0.549730000000     0.049730000000     0.500000000000     0          
Zr551    Zr     0.049730000000     0.950270000000     0.000000000000     0          
Zr552    Zr     0.450270000000     0.549730000000     0.000000000000     0          
Zr553    Zr     0.045100000000     0.454900000000     0.404980000000     0          
Zr554    Zr     0.023150000000     0.476850000000     0.684170000000     0          
Zr555    Zr     0.454900000000     0.045100000000     0.404980000000     0          
Zr556    Zr     0.476850000000     0.023150000000     0.684170000000     0          
Zr557    Zr     0.045100000000     0.045100000000     0.904980000000     0          
Zr558    Zr     0.023150000000     0.023150000000     0.184170000000     0          
Zr559    Zr     0.454900000000     0.454900000000     0.904980000000     0          
Zr560    Zr     0.476850000000     0.476850000000     0.184170000000     0          
Zr561    Zr     0.954900000000     0.954900000000     0.095020000000     0          
Zr562    Zr     0.976850000000     0.976850000000     0.815830000000     0          
Zr563    Zr     0.545100000000     0.545100000000     0.095020000000     0          
Zr564    Zr     0.523150000000     0.523150000000     0.815830000000     0          
Zr565    Zr     0.954900000000     0.545100000000     0.595020000000     0          
Zr566    Zr     0.976850000000     0.523150000000     0.315830000000     0          
Zr567    Zr     0.545100000000     0.954900000000     0.595020000000     0          
Zr568    Zr     0.523150000000     0.976850000000     0.315830000000     0          


