data_PENVEM01

_audit_creation_method RASPA-1.0
_audit_creation_date 2020-11-2
_audit_author_name 'Rocio Bueno-Perez'

_cell_length_a    33.6644
_cell_length_b    33.6644
_cell_length_c    33.6644
_cell_angle_alpha 90
_cell_angle_beta  90
_cell_angle_gamma 90
_cell_volume      38151.6

_symmetry_cell_setting          cubic
_symmetry_space_group_name_Hall 'P 1'
_symmetry_space_group_name_H-M  'P 1'
_symmetry_Int_Tables_number     1

_symmetry_equiv_pos_as_xyz 'x,y,z'

loop_
_atom_site_label
_atom_site_type_symbol
_atom_site_fract_x
_atom_site_fract_y
_atom_site_fract_z
_atom_site_charge
Zr1      Zr     0.000000000000     0.000000000000     0.426820000000     0          
O1       O      0.036400000000     0.963600000000     0.463600000000     0          
O2       O      0.000000000000     0.057000000000     0.393800000000     0          
C3       C      0.000000000000     0.112100000000     0.337200000000     0          
H1       H      0.000000000000     0.084800000000     0.329900000000     0          
C4       C      0.000000000000     0.141200000000     0.308000000000     0          
H2       H      0.000000000000     0.133900000000     0.280700000000     0          
C1       C      0.000000000000     0.092700000000     0.407300000000     0          
C2       C      0.000000000000     0.122900000000     0.377100000000     0          
C5       C      0.000000000000     0.181300000000     0.318700000000     0          
C6       C      0.000000000000     0.211400000000     0.288600000000     0          
C7       C      0.000000000000     0.236600000000     0.263400000000     0          
O1       O      0.036400000000     0.036400000000     0.463600000000     0          
O2       O      0.943000000000     0.000000000000     0.393800000000     0          
C3       C      0.887900000000     0.000000000000     0.337200000000     0          
H1       H      0.915200000000     0.000000000000     0.329900000000     0          
C4       C      0.858800000000     0.000000000000     0.308000000000     0          
H2       H      0.866100000000     0.000000000000     0.280700000000     0          
C1       C      0.907300000000     0.000000000000     0.407300000000     0          
C2       C      0.877100000000     0.000000000000     0.377100000000     0          
C5       C      0.818700000000     0.000000000000     0.318700000000     0          
C6       C      0.788600000000     0.000000000000     0.288600000000     0          
C7       C      0.763400000000     0.000000000000     0.263400000000     0          
O1       O      0.963600000000     0.036400000000     0.463600000000     0          
O2       O      0.000000000000     0.943000000000     0.393800000000     0          
C3       C      0.000000000000     0.887900000000     0.337200000000     0          
H1       H      0.000000000000     0.915200000000     0.329900000000     0          
C4       C      0.000000000000     0.858800000000     0.308000000000     0          
H2       H      0.000000000000     0.866100000000     0.280700000000     0          
C1       C      0.000000000000     0.907300000000     0.407300000000     0          
C2       C      0.000000000000     0.877100000000     0.377100000000     0          
C5       C      0.000000000000     0.818700000000     0.318700000000     0          
C6       C      0.000000000000     0.788600000000     0.288600000000     0          
C7       C      0.000000000000     0.763400000000     0.263400000000     0          
O1       O      0.963600000000     0.963600000000     0.463600000000     0          
O2       O      0.057000000000     0.000000000000     0.393800000000     0          
C3       C      0.112100000000     0.000000000000     0.337200000000     0          
H1       H      0.084800000000     0.000000000000     0.329900000000     0          
C4       C      0.141200000000     0.000000000000     0.308000000000     0          
H2       H      0.133900000000     0.000000000000     0.280700000000     0          
C1       C      0.092700000000     0.000000000000     0.407300000000     0          
C2       C      0.122900000000     0.000000000000     0.377100000000     0          
C5       C      0.181300000000     0.000000000000     0.318700000000     0          
C6       C      0.211400000000     0.000000000000     0.288600000000     0          
C7       C      0.236600000000     0.000000000000     0.263400000000     0          
Zr1      Zr     0.000000000000     0.000000000000     0.573180000000     0          
O1       O      0.036400000000     0.036400000000     0.536400000000     0          
O2       O      0.000000000000     0.943000000000     0.606200000000     0          
C3       C      0.000000000000     0.887900000000     0.662800000000     0          
H1       H      0.000000000000     0.915200000000     0.670100000000     0          
C4       C      0.000000000000     0.858800000000     0.692000000000     0          
H2       H      0.000000000000     0.866100000000     0.719300000000     0          
C1       C      0.000000000000     0.907300000000     0.592700000000     0          
C2       C      0.000000000000     0.877100000000     0.622900000000     0          
C5       C      0.000000000000     0.818700000000     0.681300000000     0          
C6       C      0.000000000000     0.788600000000     0.711400000000     0          
C7       C      0.000000000000     0.763400000000     0.736600000000     0          
O1       O      0.963600000000     0.036400000000     0.536400000000     0          
O2       O      0.057000000000     0.000000000000     0.606200000000     0          
C3       C      0.112100000000     0.000000000000     0.662800000000     0          
H1       H      0.084800000000     0.000000000000     0.670100000000     0          
C4       C      0.141200000000     0.000000000000     0.692000000000     0          
H2       H      0.133900000000     0.000000000000     0.719300000000     0          
C1       C      0.092700000000     0.000000000000     0.592700000000     0          
C2       C      0.122900000000     0.000000000000     0.622900000000     0          
C5       C      0.181300000000     0.000000000000     0.681300000000     0          
C6       C      0.211400000000     0.000000000000     0.711400000000     0          
C7       C      0.236600000000     0.000000000000     0.736600000000     0          
O1       O      0.963600000000     0.963600000000     0.536400000000     0          
O2       O      0.000000000000     0.057000000000     0.606200000000     0          
C3       C      0.000000000000     0.112100000000     0.662800000000     0          
H1       H      0.000000000000     0.084800000000     0.670100000000     0          
C4       C      0.000000000000     0.141200000000     0.692000000000     0          
H2       H      0.000000000000     0.133900000000     0.719300000000     0          
C1       C      0.000000000000     0.092700000000     0.592700000000     0          
C2       C      0.000000000000     0.122900000000     0.622900000000     0          
C5       C      0.000000000000     0.181300000000     0.681300000000     0          
C6       C      0.000000000000     0.211400000000     0.711400000000     0          
C7       C      0.000000000000     0.236600000000     0.736600000000     0          
O1       O      0.036400000000     0.963600000000     0.536400000000     0          
O2       O      0.943000000000     0.000000000000     0.606200000000     0          
C3       C      0.887900000000     0.000000000000     0.662800000000     0          
H1       H      0.915200000000     0.000000000000     0.670100000000     0          
C4       C      0.858800000000     0.000000000000     0.692000000000     0          
H2       H      0.866100000000     0.000000000000     0.719300000000     0          
C1       C      0.907300000000     0.000000000000     0.592700000000     0          
C2       C      0.877100000000     0.000000000000     0.622900000000     0          
C5       C      0.818700000000     0.000000000000     0.681300000000     0          
C6       C      0.788600000000     0.000000000000     0.711400000000     0          
C7       C      0.763400000000     0.000000000000     0.736600000000     0          
Zr1      Zr     0.426820000000     0.000000000000     0.000000000000     0          
O1       O      0.463600000000     0.036400000000     0.963600000000     0          
O2       O      0.393800000000     0.000000000000     0.057000000000     0          
C3       C      0.337200000000     0.000000000000     0.112100000000     0          
H1       H      0.329900000000     0.000000000000     0.084800000000     0          
C4       C      0.308000000000     0.000000000000     0.141200000000     0          
H2       H      0.280700000000     0.000000000000     0.133900000000     0          
C1       C      0.407300000000     0.000000000000     0.092700000000     0          
C2       C      0.377100000000     0.000000000000     0.122900000000     0          
C5       C      0.318700000000     0.000000000000     0.181300000000     0          
C6       C      0.288600000000     0.000000000000     0.211400000000     0          
C7       C      0.263400000000     0.000000000000     0.236600000000     0          
Zr1      Zr     0.000000000000     0.426820000000     0.000000000000     0          
O1       O      0.963600000000     0.463600000000     0.963600000000     0          
O2       O      0.000000000000     0.393800000000     0.057000000000     0          
C3       C      0.000000000000     0.337200000000     0.112100000000     0          
H1       H      0.000000000000     0.329900000000     0.084800000000     0          
C4       C      0.000000000000     0.308000000000     0.141200000000     0          
H2       H      0.000000000000     0.280700000000     0.133900000000     0          
C1       C      0.000000000000     0.407300000000     0.092700000000     0          
C2       C      0.000000000000     0.377100000000     0.122900000000     0          
C5       C      0.000000000000     0.318700000000     0.181300000000     0          
C6       C      0.000000000000     0.288600000000     0.211400000000     0          
C7       C      0.000000000000     0.263400000000     0.236600000000     0          
Zr1      Zr     0.573180000000     0.000000000000     0.000000000000     0          
O1       O      0.536400000000     0.963600000000     0.963600000000     0          
O2       O      0.606200000000     0.000000000000     0.057000000000     0          
C3       C      0.662800000000     0.000000000000     0.112100000000     0          
H1       H      0.670100000000     0.000000000000     0.084800000000     0          
C4       C      0.692000000000     0.000000000000     0.141200000000     0          
H2       H      0.719300000000     0.000000000000     0.133900000000     0          
C1       C      0.592700000000     0.000000000000     0.092700000000     0          
C2       C      0.622900000000     0.000000000000     0.122900000000     0          
C5       C      0.681300000000     0.000000000000     0.181300000000     0          
C6       C      0.711400000000     0.000000000000     0.211400000000     0          
C7       C      0.736600000000     0.000000000000     0.236600000000     0          
Zr1      Zr     0.000000000000     0.573180000000     0.000000000000     0          
O1       O      0.036400000000     0.536400000000     0.963600000000     0          
O2       O      0.000000000000     0.606200000000     0.057000000000     0          
C3       C      0.000000000000     0.662800000000     0.112100000000     0          
H1       H      0.000000000000     0.670100000000     0.084800000000     0          
C4       C      0.000000000000     0.692000000000     0.141200000000     0          
H2       H      0.000000000000     0.719300000000     0.133900000000     0          
C1       C      0.000000000000     0.592700000000     0.092700000000     0          
C2       C      0.000000000000     0.622900000000     0.122900000000     0          
C5       C      0.000000000000     0.681300000000     0.181300000000     0          
C6       C      0.000000000000     0.711400000000     0.211400000000     0          
C7       C      0.000000000000     0.736600000000     0.236600000000     0          
O1       O      0.463600000000     0.963600000000     0.036400000000     0          
O2       O      0.393800000000     0.000000000000     0.943000000000     0          
C3       C      0.337200000000     0.000000000000     0.887900000000     0          
H1       H      0.329900000000     0.000000000000     0.915200000000     0          
C4       C      0.308000000000     0.000000000000     0.858800000000     0          
H2       H      0.280700000000     0.000000000000     0.866100000000     0          
C1       C      0.407300000000     0.000000000000     0.907300000000     0          
C2       C      0.377100000000     0.000000000000     0.877100000000     0          
C5       C      0.318700000000     0.000000000000     0.818700000000     0          
C6       C      0.288600000000     0.000000000000     0.788600000000     0          
C7       C      0.263400000000     0.000000000000     0.763400000000     0          
O1       O      0.036400000000     0.463600000000     0.036400000000     0          
O2       O      0.000000000000     0.393800000000     0.943000000000     0          
C3       C      0.000000000000     0.337200000000     0.887900000000     0          
H1       H      0.000000000000     0.329900000000     0.915200000000     0          
C4       C      0.000000000000     0.308000000000     0.858800000000     0          
H2       H      0.000000000000     0.280700000000     0.866100000000     0          
C1       C      0.000000000000     0.407300000000     0.907300000000     0          
C2       C      0.000000000000     0.377100000000     0.877100000000     0          
C5       C      0.000000000000     0.318700000000     0.818700000000     0          
C6       C      0.000000000000     0.288600000000     0.788600000000     0          
C7       C      0.000000000000     0.263400000000     0.763400000000     0          
O1       O      0.536400000000     0.036400000000     0.036400000000     0          
O2       O      0.606200000000     0.000000000000     0.943000000000     0          
C3       C      0.662800000000     0.000000000000     0.887900000000     0          
H1       H      0.670100000000     0.000000000000     0.915200000000     0          
C4       C      0.692000000000     0.000000000000     0.858800000000     0          
H2       H      0.719300000000     0.000000000000     0.866100000000     0          
C1       C      0.592700000000     0.000000000000     0.907300000000     0          
C2       C      0.622900000000     0.000000000000     0.877100000000     0          
C5       C      0.681300000000     0.000000000000     0.818700000000     0          
C6       C      0.711400000000     0.000000000000     0.788600000000     0          
C7       C      0.736600000000     0.000000000000     0.763400000000     0          
O1       O      0.963600000000     0.536400000000     0.036400000000     0          
O2       O      0.000000000000     0.606200000000     0.943000000000     0          
C3       C      0.000000000000     0.662800000000     0.887900000000     0          
H1       H      0.000000000000     0.670100000000     0.915200000000     0          
C4       C      0.000000000000     0.692000000000     0.858800000000     0          
H2       H      0.000000000000     0.719300000000     0.866100000000     0          
C1       C      0.000000000000     0.592700000000     0.907300000000     0          
C2       C      0.000000000000     0.622900000000     0.877100000000     0          
C5       C      0.000000000000     0.681300000000     0.818700000000     0          
C6       C      0.000000000000     0.711400000000     0.788600000000     0          
C7       C      0.000000000000     0.736600000000     0.763400000000     0          
O1       O      0.963600000000     0.463600000000     0.036400000000     0          
O2       O      0.057000000000     0.393800000000     0.000000000000     0          
C3       C      0.112100000000     0.337200000000     0.000000000000     0          
H1       H      0.084800000000     0.329900000000     0.000000000000     0          
C4       C      0.141200000000     0.308000000000     0.000000000000     0          
H2       H      0.133900000000     0.280700000000     0.000000000000     0          
C1       C      0.092700000000     0.407300000000     0.000000000000     0          
C2       C      0.122900000000     0.377100000000     0.000000000000     0          
C5       C      0.181300000000     0.318700000000     0.000000000000     0          
C6       C      0.211400000000     0.288600000000     0.000000000000     0          
C7       C      0.236600000000     0.263400000000     0.000000000000     0          
O1       O      0.963600000000     0.536400000000     0.963600000000     0          
O2       O      0.057000000000     0.606200000000     0.000000000000     0          
C3       C      0.112100000000     0.662800000000     0.000000000000     0          
H1       H      0.084800000000     0.670100000000     0.000000000000     0          
C4       C      0.141200000000     0.692000000000     0.000000000000     0          
H2       H      0.133900000000     0.719300000000     0.000000000000     0          
C1       C      0.092700000000     0.592700000000     0.000000000000     0          
C2       C      0.122900000000     0.622900000000     0.000000000000     0          
C5       C      0.181300000000     0.681300000000     0.000000000000     0          
C6       C      0.211400000000     0.711400000000     0.000000000000     0          
C7       C      0.236600000000     0.736600000000     0.000000000000     0          
O1       O      0.463600000000     0.963600000000     0.963600000000     0          
O2       O      0.393800000000     0.057000000000     0.000000000000     0          
C3       C      0.337200000000     0.112100000000     0.000000000000     0          
H1       H      0.329900000000     0.084800000000     0.000000000000     0          
C4       C      0.308000000000     0.141200000000     0.000000000000     0          
H2       H      0.280700000000     0.133900000000     0.000000000000     0          
C1       C      0.407300000000     0.092700000000     0.000000000000     0          
C2       C      0.377100000000     0.122900000000     0.000000000000     0          
C5       C      0.318700000000     0.181300000000     0.000000000000     0          
C6       C      0.288600000000     0.211400000000     0.000000000000     0          
C7       C      0.263400000000     0.236600000000     0.000000000000     0          
O1       O      0.036400000000     0.463600000000     0.963600000000     0          
O2       O      0.943000000000     0.393800000000     0.000000000000     0          
C3       C      0.887900000000     0.337200000000     0.000000000000     0          
H1       H      0.915200000000     0.329900000000     0.000000000000     0          
C4       C      0.858800000000     0.308000000000     0.000000000000     0          
H2       H      0.866100000000     0.280700000000     0.000000000000     0          
C1       C      0.907300000000     0.407300000000     0.000000000000     0          
C2       C      0.877100000000     0.377100000000     0.000000000000     0          
C5       C      0.818700000000     0.318700000000     0.000000000000     0          
C6       C      0.788600000000     0.288600000000     0.000000000000     0          
C7       C      0.763400000000     0.263400000000     0.000000000000     0          
O1       O      0.536400000000     0.036400000000     0.963600000000     0          
O2       O      0.606200000000     0.943000000000     0.000000000000     0          
C3       C      0.662800000000     0.887900000000     0.000000000000     0          
H1       H      0.670100000000     0.915200000000     0.000000000000     0          
C4       C      0.692000000000     0.858800000000     0.000000000000     0          
H2       H      0.719300000000     0.866100000000     0.000000000000     0          
C1       C      0.592700000000     0.907300000000     0.000000000000     0          
C2       C      0.622900000000     0.877100000000     0.000000000000     0          
C5       C      0.681300000000     0.818700000000     0.000000000000     0          
C6       C      0.711400000000     0.788600000000     0.000000000000     0          
C7       C      0.736600000000     0.763400000000     0.000000000000     0          
O1       O      0.036400000000     0.536400000000     0.036400000000     0          
O2       O      0.943000000000     0.606200000000     0.000000000000     0          
C3       C      0.887900000000     0.662800000000     0.000000000000     0          
H1       H      0.915200000000     0.670100000000     0.000000000000     0          
C4       C      0.858800000000     0.692000000000     0.000000000000     0          
H2       H      0.866100000000     0.719300000000     0.000000000000     0          
C1       C      0.907300000000     0.592700000000     0.000000000000     0          
C2       C      0.877100000000     0.622900000000     0.000000000000     0          
C5       C      0.818700000000     0.681300000000     0.000000000000     0          
C6       C      0.788600000000     0.711400000000     0.000000000000     0          
C7       C      0.763400000000     0.736600000000     0.000000000000     0          
O1       O      0.463600000000     0.036400000000     0.036400000000     0          
O2       O      0.393800000000     0.943000000000     0.000000000000     0          
C3       C      0.337200000000     0.887900000000     0.000000000000     0          
H1       H      0.329900000000     0.915200000000     0.000000000000     0          
C4       C      0.308000000000     0.858800000000     0.000000000000     0          
H2       H      0.280700000000     0.866100000000     0.000000000000     0          
C1       C      0.407300000000     0.907300000000     0.000000000000     0          
C2       C      0.377100000000     0.877100000000     0.000000000000     0          
C5       C      0.318700000000     0.818700000000     0.000000000000     0          
C6       C      0.288600000000     0.788600000000     0.000000000000     0          
C7       C      0.263400000000     0.763400000000     0.000000000000     0          
O1       O      0.536400000000     0.963600000000     0.036400000000     0          
O2       O      0.606200000000     0.057000000000     0.000000000000     0          
C3       C      0.662800000000     0.112100000000     0.000000000000     0          
H1       H      0.670100000000     0.084800000000     0.000000000000     0          
C4       C      0.692000000000     0.141200000000     0.000000000000     0          
H2       H      0.719300000000     0.133900000000     0.000000000000     0          
C1       C      0.592700000000     0.092700000000     0.000000000000     0          
C2       C      0.622900000000     0.122900000000     0.000000000000     0          
C5       C      0.681300000000     0.181300000000     0.000000000000     0          
C6       C      0.711400000000     0.211400000000     0.000000000000     0          
C7       C      0.736600000000     0.236600000000     0.000000000000     0          
Zr1      Zr     0.000000000000     0.500000000000     0.926820000000     0          
O2       O      0.000000000000     0.557000000000     0.893800000000     0          
C3       C      0.000000000000     0.612100000000     0.837200000000     0          
H1       H      0.000000000000     0.584800000000     0.829900000000     0          
C4       C      0.000000000000     0.641200000000     0.808000000000     0          
H2       H      0.000000000000     0.633900000000     0.780700000000     0          
O2       O      0.943000000000     0.500000000000     0.893800000000     0          
C3       C      0.887900000000     0.500000000000     0.837200000000     0          
H1       H      0.915200000000     0.500000000000     0.829900000000     0          
C4       C      0.858800000000     0.500000000000     0.808000000000     0          
H2       H      0.866100000000     0.500000000000     0.780700000000     0          
C1       C      0.907300000000     0.500000000000     0.907300000000     0          
C2       C      0.877100000000     0.500000000000     0.877100000000     0          
C5       C      0.818700000000     0.500000000000     0.818700000000     0          
C6       C      0.788600000000     0.500000000000     0.788600000000     0          
C7       C      0.763400000000     0.500000000000     0.763400000000     0          
O2       O      0.000000000000     0.443000000000     0.893800000000     0          
C3       C      0.000000000000     0.387900000000     0.837200000000     0          
H1       H      0.000000000000     0.415200000000     0.829900000000     0          
C4       C      0.000000000000     0.358800000000     0.808000000000     0          
H2       H      0.000000000000     0.366100000000     0.780700000000     0          
O2       O      0.057000000000     0.500000000000     0.893800000000     0          
C3       C      0.112100000000     0.500000000000     0.837200000000     0          
H1       H      0.084800000000     0.500000000000     0.829900000000     0          
C4       C      0.141200000000     0.500000000000     0.808000000000     0          
H2       H      0.133900000000     0.500000000000     0.780700000000     0          
C1       C      0.092700000000     0.500000000000     0.907300000000     0          
C2       C      0.122900000000     0.500000000000     0.877100000000     0          
C5       C      0.181300000000     0.500000000000     0.818700000000     0          
C6       C      0.211400000000     0.500000000000     0.788600000000     0          
C7       C      0.236600000000     0.500000000000     0.763400000000     0          
Zr1      Zr     0.000000000000     0.500000000000     0.073180000000     0          
O2       O      0.000000000000     0.443000000000     0.106200000000     0          
C3       C      0.000000000000     0.387900000000     0.162800000000     0          
H1       H      0.000000000000     0.415200000000     0.170100000000     0          
C4       C      0.000000000000     0.358800000000     0.192000000000     0          
H2       H      0.000000000000     0.366100000000     0.219300000000     0          
O2       O      0.057000000000     0.500000000000     0.106200000000     0          
C3       C      0.112100000000     0.500000000000     0.162800000000     0          
H1       H      0.084800000000     0.500000000000     0.170100000000     0          
C4       C      0.141200000000     0.500000000000     0.192000000000     0          
H2       H      0.133900000000     0.500000000000     0.219300000000     0          
C1       C      0.092700000000     0.500000000000     0.092700000000     0          
C2       C      0.122900000000     0.500000000000     0.122900000000     0          
C5       C      0.181300000000     0.500000000000     0.181300000000     0          
C6       C      0.211400000000     0.500000000000     0.211400000000     0          
C7       C      0.236600000000     0.500000000000     0.236600000000     0          
O2       O      0.000000000000     0.557000000000     0.106200000000     0          
C3       C      0.000000000000     0.612100000000     0.162800000000     0          
H1       H      0.000000000000     0.584800000000     0.170100000000     0          
C4       C      0.000000000000     0.641200000000     0.192000000000     0          
H2       H      0.000000000000     0.633900000000     0.219300000000     0          
O2       O      0.943000000000     0.500000000000     0.106200000000     0          
C3       C      0.887900000000     0.500000000000     0.162800000000     0          
H1       H      0.915200000000     0.500000000000     0.170100000000     0          
C4       C      0.858800000000     0.500000000000     0.192000000000     0          
H2       H      0.866100000000     0.500000000000     0.219300000000     0          
C1       C      0.907300000000     0.500000000000     0.092700000000     0          
C2       C      0.877100000000     0.500000000000     0.122900000000     0          
C5       C      0.818700000000     0.500000000000     0.181300000000     0          
C6       C      0.788600000000     0.500000000000     0.211400000000     0          
C7       C      0.763400000000     0.500000000000     0.236600000000     0          
Zr1      Zr     0.426820000000     0.500000000000     0.500000000000     0          
O1       O      0.463600000000     0.536400000000     0.463600000000     0          
O2       O      0.393800000000     0.500000000000     0.557000000000     0          
C3       C      0.337200000000     0.500000000000     0.612100000000     0          
H1       H      0.329900000000     0.500000000000     0.584800000000     0          
C4       C      0.308000000000     0.500000000000     0.641200000000     0          
H2       H      0.280700000000     0.500000000000     0.633900000000     0          
C1       C      0.407300000000     0.500000000000     0.592700000000     0          
C2       C      0.377100000000     0.500000000000     0.622900000000     0          
C5       C      0.318700000000     0.500000000000     0.681300000000     0          
C6       C      0.288600000000     0.500000000000     0.711400000000     0          
C7       C      0.263400000000     0.500000000000     0.736600000000     0          
Zr1      Zr     0.000000000000     0.926820000000     0.500000000000     0          
O2       O      0.000000000000     0.893800000000     0.557000000000     0          
C3       C      0.000000000000     0.837200000000     0.612100000000     0          
H1       H      0.000000000000     0.829900000000     0.584800000000     0          
C4       C      0.000000000000     0.808000000000     0.641200000000     0          
H2       H      0.000000000000     0.780700000000     0.633900000000     0          
Zr1      Zr     0.573180000000     0.500000000000     0.500000000000     0          
O1       O      0.536400000000     0.463600000000     0.463600000000     0          
O2       O      0.606200000000     0.500000000000     0.557000000000     0          
C3       C      0.662800000000     0.500000000000     0.612100000000     0          
H1       H      0.670100000000     0.500000000000     0.584800000000     0          
C4       C      0.692000000000     0.500000000000     0.641200000000     0          
H2       H      0.719300000000     0.500000000000     0.633900000000     0          
C1       C      0.592700000000     0.500000000000     0.592700000000     0          
C2       C      0.622900000000     0.500000000000     0.622900000000     0          
C5       C      0.681300000000     0.500000000000     0.681300000000     0          
C6       C      0.711400000000     0.500000000000     0.711400000000     0          
C7       C      0.736600000000     0.500000000000     0.736600000000     0          
Zr1      Zr     0.000000000000     0.073180000000     0.500000000000     0          
O2       O      0.000000000000     0.106200000000     0.557000000000     0          
C3       C      0.000000000000     0.162800000000     0.612100000000     0          
H1       H      0.000000000000     0.170100000000     0.584800000000     0          
C4       C      0.000000000000     0.192000000000     0.641200000000     0          
H2       H      0.000000000000     0.219300000000     0.633900000000     0          
O1       O      0.463600000000     0.463600000000     0.536400000000     0          
O2       O      0.393800000000     0.500000000000     0.443000000000     0          
C3       C      0.337200000000     0.500000000000     0.387900000000     0          
H1       H      0.329900000000     0.500000000000     0.415200000000     0          
C4       C      0.308000000000     0.500000000000     0.358800000000     0          
H2       H      0.280700000000     0.500000000000     0.366100000000     0          
C1       C      0.407300000000     0.500000000000     0.407300000000     0          
C2       C      0.377100000000     0.500000000000     0.377100000000     0          
C5       C      0.318700000000     0.500000000000     0.318700000000     0          
C6       C      0.288600000000     0.500000000000     0.288600000000     0          
C7       C      0.263400000000     0.500000000000     0.263400000000     0          
O2       O      0.000000000000     0.893800000000     0.443000000000     0          
C3       C      0.000000000000     0.837200000000     0.387900000000     0          
H1       H      0.000000000000     0.829900000000     0.415200000000     0          
C4       C      0.000000000000     0.808000000000     0.358800000000     0          
H2       H      0.000000000000     0.780700000000     0.366100000000     0          
O1       O      0.536400000000     0.536400000000     0.536400000000     0          
O2       O      0.606200000000     0.500000000000     0.443000000000     0          
C3       C      0.662800000000     0.500000000000     0.387900000000     0          
H1       H      0.670100000000     0.500000000000     0.415200000000     0          
C4       C      0.692000000000     0.500000000000     0.358800000000     0          
H2       H      0.719300000000     0.500000000000     0.366100000000     0          
C1       C      0.592700000000     0.500000000000     0.407300000000     0          
C2       C      0.622900000000     0.500000000000     0.377100000000     0          
C5       C      0.681300000000     0.500000000000     0.318700000000     0          
C6       C      0.711400000000     0.500000000000     0.288600000000     0          
C7       C      0.736600000000     0.500000000000     0.263400000000     0          
O2       O      0.000000000000     0.106200000000     0.443000000000     0          
C3       C      0.000000000000     0.162800000000     0.387900000000     0          
H1       H      0.000000000000     0.170100000000     0.415200000000     0          
C4       C      0.000000000000     0.192000000000     0.358800000000     0          
H2       H      0.000000000000     0.219300000000     0.366100000000     0          
O2       O      0.057000000000     0.893800000000     0.500000000000     0          
C3       C      0.112100000000     0.837200000000     0.500000000000     0          
H1       H      0.084800000000     0.829900000000     0.500000000000     0          
C4       C      0.141200000000     0.808000000000     0.500000000000     0          
H2       H      0.133900000000     0.780700000000     0.500000000000     0          
C1       C      0.092700000000     0.907300000000     0.500000000000     0          
C2       C      0.122900000000     0.877100000000     0.500000000000     0          
C5       C      0.181300000000     0.818700000000     0.500000000000     0          
C6       C      0.211400000000     0.788600000000     0.500000000000     0          
C7       C      0.236600000000     0.763400000000     0.500000000000     0          
O2       O      0.057000000000     0.106200000000     0.500000000000     0          
C3       C      0.112100000000     0.162800000000     0.500000000000     0          
H1       H      0.084800000000     0.170100000000     0.500000000000     0          
C4       C      0.141200000000     0.192000000000     0.500000000000     0          
H2       H      0.133900000000     0.219300000000     0.500000000000     0          
C1       C      0.092700000000     0.092700000000     0.500000000000     0          
C2       C      0.122900000000     0.122900000000     0.500000000000     0          
C5       C      0.181300000000     0.181300000000     0.500000000000     0          
C6       C      0.211400000000     0.211400000000     0.500000000000     0          
C7       C      0.236600000000     0.236600000000     0.500000000000     0          
O1       O      0.463600000000     0.463600000000     0.463600000000     0          
O2       O      0.393800000000     0.557000000000     0.500000000000     0          
C3       C      0.337200000000     0.612100000000     0.500000000000     0          
H1       H      0.329900000000     0.584800000000     0.500000000000     0          
C4       C      0.308000000000     0.641200000000     0.500000000000     0          
H2       H      0.280700000000     0.633900000000     0.500000000000     0          
C1       C      0.407300000000     0.592700000000     0.500000000000     0          
C2       C      0.377100000000     0.622900000000     0.500000000000     0          
C5       C      0.318700000000     0.681300000000     0.500000000000     0          
C6       C      0.288600000000     0.711400000000     0.500000000000     0          
C7       C      0.263400000000     0.736600000000     0.500000000000     0          
O2       O      0.943000000000     0.893800000000     0.500000000000     0          
C3       C      0.887900000000     0.837200000000     0.500000000000     0          
H1       H      0.915200000000     0.829900000000     0.500000000000     0          
C4       C      0.858800000000     0.808000000000     0.500000000000     0          
H2       H      0.866100000000     0.780700000000     0.500000000000     0          
C1       C      0.907300000000     0.907300000000     0.500000000000     0          
C2       C      0.877100000000     0.877100000000     0.500000000000     0          
C5       C      0.818700000000     0.818700000000     0.500000000000     0          
C6       C      0.788600000000     0.788600000000     0.500000000000     0          
C7       C      0.763400000000     0.763400000000     0.500000000000     0          
O1       O      0.536400000000     0.536400000000     0.463600000000     0          
O2       O      0.606200000000     0.443000000000     0.500000000000     0          
C3       C      0.662800000000     0.387900000000     0.500000000000     0          
H1       H      0.670100000000     0.415200000000     0.500000000000     0          
C4       C      0.692000000000     0.358800000000     0.500000000000     0          
H2       H      0.719300000000     0.366100000000     0.500000000000     0          
C1       C      0.592700000000     0.407300000000     0.500000000000     0          
C2       C      0.622900000000     0.377100000000     0.500000000000     0          
C5       C      0.681300000000     0.318700000000     0.500000000000     0          
C6       C      0.711400000000     0.288600000000     0.500000000000     0          
C7       C      0.736600000000     0.263400000000     0.500000000000     0          
O2       O      0.943000000000     0.106200000000     0.500000000000     0          
C3       C      0.887900000000     0.162800000000     0.500000000000     0          
H1       H      0.915200000000     0.170100000000     0.500000000000     0          
C4       C      0.858800000000     0.192000000000     0.500000000000     0          
H2       H      0.866100000000     0.219300000000     0.500000000000     0          
C1       C      0.907300000000     0.092700000000     0.500000000000     0          
C2       C      0.877100000000     0.122900000000     0.500000000000     0          
C5       C      0.818700000000     0.181300000000     0.500000000000     0          
C6       C      0.788600000000     0.211400000000     0.500000000000     0          
C7       C      0.763400000000     0.236600000000     0.500000000000     0          
O1       O      0.463600000000     0.536400000000     0.536400000000     0          
O2       O      0.393800000000     0.443000000000     0.500000000000     0          
C3       C      0.337200000000     0.387900000000     0.500000000000     0          
H1       H      0.329900000000     0.415200000000     0.500000000000     0          
C4       C      0.308000000000     0.358800000000     0.500000000000     0          
H2       H      0.280700000000     0.366100000000     0.500000000000     0          
C1       C      0.407300000000     0.407300000000     0.500000000000     0          
C2       C      0.377100000000     0.377100000000     0.500000000000     0          
C5       C      0.318700000000     0.318700000000     0.500000000000     0          
C6       C      0.288600000000     0.288600000000     0.500000000000     0          
C7       C      0.263400000000     0.263400000000     0.500000000000     0          
O1       O      0.536400000000     0.463600000000     0.536400000000     0          
O2       O      0.606200000000     0.557000000000     0.500000000000     0          
C3       C      0.662800000000     0.612100000000     0.500000000000     0          
H1       H      0.670100000000     0.584800000000     0.500000000000     0          
C4       C      0.692000000000     0.641200000000     0.500000000000     0          
H2       H      0.719300000000     0.633900000000     0.500000000000     0          
C1       C      0.592700000000     0.592700000000     0.500000000000     0          
C2       C      0.622900000000     0.622900000000     0.500000000000     0          
C5       C      0.681300000000     0.681300000000     0.500000000000     0          
C6       C      0.711400000000     0.711400000000     0.500000000000     0          
C7       C      0.736600000000     0.736600000000     0.500000000000     0          
Zr1      Zr     0.500000000000     0.000000000000     0.926820000000     0          
O2       O      0.500000000000     0.057000000000     0.893800000000     0          
C3       C      0.500000000000     0.112100000000     0.837200000000     0          
H1       H      0.500000000000     0.084800000000     0.829900000000     0          
C4       C      0.500000000000     0.141200000000     0.808000000000     0          
H2       H      0.500000000000     0.133900000000     0.780700000000     0          
C1       C      0.500000000000     0.092700000000     0.907300000000     0          
C2       C      0.500000000000     0.122900000000     0.877100000000     0          
C5       C      0.500000000000     0.181300000000     0.818700000000     0          
C6       C      0.500000000000     0.211400000000     0.788600000000     0          
C7       C      0.500000000000     0.236600000000     0.763400000000     0          
O2       O      0.443000000000     0.000000000000     0.893800000000     0          
C3       C      0.387900000000     0.000000000000     0.837200000000     0          
H1       H      0.415200000000     0.000000000000     0.829900000000     0          
C4       C      0.358800000000     0.000000000000     0.808000000000     0          
H2       H      0.366100000000     0.000000000000     0.780700000000     0          
O2       O      0.500000000000     0.943000000000     0.893800000000     0          
C3       C      0.500000000000     0.887900000000     0.837200000000     0          
H1       H      0.500000000000     0.915200000000     0.829900000000     0          
C4       C      0.500000000000     0.858800000000     0.808000000000     0          
H2       H      0.500000000000     0.866100000000     0.780700000000     0          
C1       C      0.500000000000     0.907300000000     0.907300000000     0          
C2       C      0.500000000000     0.877100000000     0.877100000000     0          
C5       C      0.500000000000     0.818700000000     0.818700000000     0          
C6       C      0.500000000000     0.788600000000     0.788600000000     0          
C7       C      0.500000000000     0.763400000000     0.763400000000     0          
O2       O      0.557000000000     0.000000000000     0.893800000000     0          
C3       C      0.612100000000     0.000000000000     0.837200000000     0          
H1       H      0.584800000000     0.000000000000     0.829900000000     0          
C4       C      0.641200000000     0.000000000000     0.808000000000     0          
H2       H      0.633900000000     0.000000000000     0.780700000000     0          
Zr1      Zr     0.500000000000     0.000000000000     0.073180000000     0          
O2       O      0.500000000000     0.943000000000     0.106200000000     0          
C3       C      0.500000000000     0.887900000000     0.162800000000     0          
H1       H      0.500000000000     0.915200000000     0.170100000000     0          
C4       C      0.500000000000     0.858800000000     0.192000000000     0          
H2       H      0.500000000000     0.866100000000     0.219300000000     0          
C1       C      0.500000000000     0.907300000000     0.092700000000     0          
C2       C      0.500000000000     0.877100000000     0.122900000000     0          
C5       C      0.500000000000     0.818700000000     0.181300000000     0          
C6       C      0.500000000000     0.788600000000     0.211400000000     0          
C7       C      0.500000000000     0.763400000000     0.236600000000     0          
O2       O      0.557000000000     0.000000000000     0.106200000000     0          
C3       C      0.612100000000     0.000000000000     0.162800000000     0          
H1       H      0.584800000000     0.000000000000     0.170100000000     0          
C4       C      0.641200000000     0.000000000000     0.192000000000     0          
H2       H      0.633900000000     0.000000000000     0.219300000000     0          
O2       O      0.500000000000     0.057000000000     0.106200000000     0          
C3       C      0.500000000000     0.112100000000     0.162800000000     0          
H1       H      0.500000000000     0.084800000000     0.170100000000     0          
C4       C      0.500000000000     0.141200000000     0.192000000000     0          
H2       H      0.500000000000     0.133900000000     0.219300000000     0          
C1       C      0.500000000000     0.092700000000     0.092700000000     0          
C2       C      0.500000000000     0.122900000000     0.122900000000     0          
C5       C      0.500000000000     0.181300000000     0.181300000000     0          
C6       C      0.500000000000     0.211400000000     0.211400000000     0          
C7       C      0.500000000000     0.236600000000     0.236600000000     0          
O2       O      0.443000000000     0.000000000000     0.106200000000     0          
C3       C      0.387900000000     0.000000000000     0.162800000000     0          
H1       H      0.415200000000     0.000000000000     0.170100000000     0          
C4       C      0.358800000000     0.000000000000     0.192000000000     0          
H2       H      0.366100000000     0.000000000000     0.219300000000     0          
Zr1      Zr     0.926820000000     0.000000000000     0.500000000000     0          
O2       O      0.893800000000     0.000000000000     0.557000000000     0          
C3       C      0.837200000000     0.000000000000     0.612100000000     0          
H1       H      0.829900000000     0.000000000000     0.584800000000     0          
C4       C      0.808000000000     0.000000000000     0.641200000000     0          
H2       H      0.780700000000     0.000000000000     0.633900000000     0          
Zr1      Zr     0.500000000000     0.426820000000     0.500000000000     0          
O2       O      0.500000000000     0.393800000000     0.557000000000     0          
C3       C      0.500000000000     0.337200000000     0.612100000000     0          
H1       H      0.500000000000     0.329900000000     0.584800000000     0          
C4       C      0.500000000000     0.308000000000     0.641200000000     0          
H2       H      0.500000000000     0.280700000000     0.633900000000     0          
C1       C      0.500000000000     0.407300000000     0.592700000000     0          
C2       C      0.500000000000     0.377100000000     0.622900000000     0          
C5       C      0.500000000000     0.318700000000     0.681300000000     0          
C6       C      0.500000000000     0.288600000000     0.711400000000     0          
C7       C      0.500000000000     0.263400000000     0.736600000000     0          
Zr1      Zr     0.073180000000     0.000000000000     0.500000000000     0          
O2       O      0.106200000000     0.000000000000     0.557000000000     0          
C3       C      0.162800000000     0.000000000000     0.612100000000     0          
H1       H      0.170100000000     0.000000000000     0.584800000000     0          
C4       C      0.192000000000     0.000000000000     0.641200000000     0          
H2       H      0.219300000000     0.000000000000     0.633900000000     0          
Zr1      Zr     0.500000000000     0.573180000000     0.500000000000     0          
O2       O      0.500000000000     0.606200000000     0.557000000000     0          
C3       C      0.500000000000     0.662800000000     0.612100000000     0          
H1       H      0.500000000000     0.670100000000     0.584800000000     0          
C4       C      0.500000000000     0.692000000000     0.641200000000     0          
H2       H      0.500000000000     0.719300000000     0.633900000000     0          
C1       C      0.500000000000     0.592700000000     0.592700000000     0          
C2       C      0.500000000000     0.622900000000     0.622900000000     0          
C5       C      0.500000000000     0.681300000000     0.681300000000     0          
C6       C      0.500000000000     0.711400000000     0.711400000000     0          
C7       C      0.500000000000     0.736600000000     0.736600000000     0          
O2       O      0.893800000000     0.000000000000     0.443000000000     0          
C3       C      0.837200000000     0.000000000000     0.387900000000     0          
H1       H      0.829900000000     0.000000000000     0.415200000000     0          
C4       C      0.808000000000     0.000000000000     0.358800000000     0          
H2       H      0.780700000000     0.000000000000     0.366100000000     0          
O2       O      0.500000000000     0.393800000000     0.443000000000     0          
C3       C      0.500000000000     0.337200000000     0.387900000000     0          
H1       H      0.500000000000     0.329900000000     0.415200000000     0          
C4       C      0.500000000000     0.308000000000     0.358800000000     0          
H2       H      0.500000000000     0.280700000000     0.366100000000     0          
C1       C      0.500000000000     0.407300000000     0.407300000000     0          
C2       C      0.500000000000     0.377100000000     0.377100000000     0          
C5       C      0.500000000000     0.318700000000     0.318700000000     0          
C6       C      0.500000000000     0.288600000000     0.288600000000     0          
C7       C      0.500000000000     0.263400000000     0.263400000000     0          
O2       O      0.106200000000     0.000000000000     0.443000000000     0          
C3       C      0.162800000000     0.000000000000     0.387900000000     0          
H1       H      0.170100000000     0.000000000000     0.415200000000     0          
C4       C      0.192000000000     0.000000000000     0.358800000000     0          
H2       H      0.219300000000     0.000000000000     0.366100000000     0          
O2       O      0.500000000000     0.606200000000     0.443000000000     0          
C3       C      0.500000000000     0.662800000000     0.387900000000     0          
H1       H      0.500000000000     0.670100000000     0.415200000000     0          
C4       C      0.500000000000     0.692000000000     0.358800000000     0          
H2       H      0.500000000000     0.719300000000     0.366100000000     0          
C1       C      0.500000000000     0.592700000000     0.407300000000     0          
C2       C      0.500000000000     0.622900000000     0.377100000000     0          
C5       C      0.500000000000     0.681300000000     0.318700000000     0          
C6       C      0.500000000000     0.711400000000     0.288600000000     0          
C7       C      0.500000000000     0.736600000000     0.263400000000     0          
O2       O      0.557000000000     0.393800000000     0.500000000000     0          
C3       C      0.612100000000     0.337200000000     0.500000000000     0          
H1       H      0.584800000000     0.329900000000     0.500000000000     0          
C4       C      0.641200000000     0.308000000000     0.500000000000     0          
H2       H      0.633900000000     0.280700000000     0.500000000000     0          
O2       O      0.557000000000     0.606200000000     0.500000000000     0          
C3       C      0.612100000000     0.662800000000     0.500000000000     0          
H1       H      0.584800000000     0.670100000000     0.500000000000     0          
C4       C      0.641200000000     0.692000000000     0.500000000000     0          
H2       H      0.633900000000     0.719300000000     0.500000000000     0          
O2       O      0.893800000000     0.057000000000     0.500000000000     0          
C3       C      0.837200000000     0.112100000000     0.500000000000     0          
H1       H      0.829900000000     0.084800000000     0.500000000000     0          
C4       C      0.808000000000     0.141200000000     0.500000000000     0          
H2       H      0.780700000000     0.133900000000     0.500000000000     0          
O2       O      0.443000000000     0.393800000000     0.500000000000     0          
C3       C      0.387900000000     0.337200000000     0.500000000000     0          
H1       H      0.415200000000     0.329900000000     0.500000000000     0          
C4       C      0.358800000000     0.308000000000     0.500000000000     0          
H2       H      0.366100000000     0.280700000000     0.500000000000     0          
O2       O      0.106200000000     0.943000000000     0.500000000000     0          
C3       C      0.162800000000     0.887900000000     0.500000000000     0          
H1       H      0.170100000000     0.915200000000     0.500000000000     0          
C4       C      0.192000000000     0.858800000000     0.500000000000     0          
H2       H      0.219300000000     0.866100000000     0.500000000000     0          
O2       O      0.443000000000     0.606200000000     0.500000000000     0          
C3       C      0.387900000000     0.662800000000     0.500000000000     0          
H1       H      0.415200000000     0.670100000000     0.500000000000     0          
C4       C      0.358800000000     0.692000000000     0.500000000000     0          
H2       H      0.366100000000     0.719300000000     0.500000000000     0          
O2       O      0.893800000000     0.943000000000     0.500000000000     0          
C3       C      0.837200000000     0.887900000000     0.500000000000     0          
H1       H      0.829900000000     0.915200000000     0.500000000000     0          
C4       C      0.808000000000     0.858800000000     0.500000000000     0          
H2       H      0.780700000000     0.866100000000     0.500000000000     0          
O2       O      0.106200000000     0.057000000000     0.500000000000     0          
C3       C      0.162800000000     0.112100000000     0.500000000000     0          
H1       H      0.170100000000     0.084800000000     0.500000000000     0          
C4       C      0.192000000000     0.141200000000     0.500000000000     0          
H2       H      0.219300000000     0.133900000000     0.500000000000     0          
Zr1      Zr     0.500000000000     0.500000000000     0.426820000000     0          
O2       O      0.500000000000     0.557000000000     0.393800000000     0          
C3       C      0.500000000000     0.612100000000     0.337200000000     0          
H1       H      0.500000000000     0.584800000000     0.329900000000     0          
C4       C      0.500000000000     0.641200000000     0.308000000000     0          
H2       H      0.500000000000     0.633900000000     0.280700000000     0          
O2       O      0.443000000000     0.500000000000     0.393800000000     0          
C3       C      0.387900000000     0.500000000000     0.337200000000     0          
H1       H      0.415200000000     0.500000000000     0.329900000000     0          
C4       C      0.358800000000     0.500000000000     0.308000000000     0          
H2       H      0.366100000000     0.500000000000     0.280700000000     0          
O2       O      0.500000000000     0.443000000000     0.393800000000     0          
C3       C      0.500000000000     0.387900000000     0.337200000000     0          
H1       H      0.500000000000     0.415200000000     0.329900000000     0          
C4       C      0.500000000000     0.358800000000     0.308000000000     0          
H2       H      0.500000000000     0.366100000000     0.280700000000     0          
O2       O      0.557000000000     0.500000000000     0.393800000000     0          
C3       C      0.612100000000     0.500000000000     0.337200000000     0          
H1       H      0.584800000000     0.500000000000     0.329900000000     0          
C4       C      0.641200000000     0.500000000000     0.308000000000     0          
H2       H      0.633900000000     0.500000000000     0.280700000000     0          
Zr1      Zr     0.500000000000     0.500000000000     0.573180000000     0          
O2       O      0.500000000000     0.443000000000     0.606200000000     0          
C3       C      0.500000000000     0.387900000000     0.662800000000     0          
H1       H      0.500000000000     0.415200000000     0.670100000000     0          
C4       C      0.500000000000     0.358800000000     0.692000000000     0          
H2       H      0.500000000000     0.366100000000     0.719300000000     0          
O2       O      0.557000000000     0.500000000000     0.606200000000     0          
C3       C      0.612100000000     0.500000000000     0.662800000000     0          
H1       H      0.584800000000     0.500000000000     0.670100000000     0          
C4       C      0.641200000000     0.500000000000     0.692000000000     0          
H2       H      0.633900000000     0.500000000000     0.719300000000     0          
O2       O      0.500000000000     0.557000000000     0.606200000000     0          
C3       C      0.500000000000     0.612100000000     0.662800000000     0          
H1       H      0.500000000000     0.584800000000     0.670100000000     0          
C4       C      0.500000000000     0.641200000000     0.692000000000     0          
H2       H      0.500000000000     0.633900000000     0.719300000000     0          
O2       O      0.443000000000     0.500000000000     0.606200000000     0          
C3       C      0.387900000000     0.500000000000     0.662800000000     0          
H1       H      0.415200000000     0.500000000000     0.670100000000     0          
C4       C      0.358800000000     0.500000000000     0.692000000000     0          
H2       H      0.366100000000     0.500000000000     0.719300000000     0          
Zr1      Zr     0.926820000000     0.500000000000     0.000000000000     0          
O2       O      0.893800000000     0.500000000000     0.057000000000     0          
C3       C      0.837200000000     0.500000000000     0.112100000000     0          
H1       H      0.829900000000     0.500000000000     0.084800000000     0          
C4       C      0.808000000000     0.500000000000     0.141200000000     0          
H2       H      0.780700000000     0.500000000000     0.133900000000     0          
Zr1      Zr     0.500000000000     0.926820000000     0.000000000000     0          
O2       O      0.500000000000     0.893800000000     0.057000000000     0          
C3       C      0.500000000000     0.837200000000     0.112100000000     0          
H1       H      0.500000000000     0.829900000000     0.084800000000     0          
C4       C      0.500000000000     0.808000000000     0.141200000000     0          
H2       H      0.500000000000     0.780700000000     0.133900000000     0          
Zr1      Zr     0.073180000000     0.500000000000     0.000000000000     0          
O2       O      0.106200000000     0.500000000000     0.057000000000     0          
C3       C      0.162800000000     0.500000000000     0.112100000000     0          
H1       H      0.170100000000     0.500000000000     0.084800000000     0          
C4       C      0.192000000000     0.500000000000     0.141200000000     0          
H2       H      0.219300000000     0.500000000000     0.133900000000     0          
Zr1      Zr     0.500000000000     0.073180000000     0.000000000000     0          
O2       O      0.500000000000     0.106200000000     0.057000000000     0          
C3       C      0.500000000000     0.162800000000     0.112100000000     0          
H1       H      0.500000000000     0.170100000000     0.084800000000     0          
C4       C      0.500000000000     0.192000000000     0.141200000000     0          
H2       H      0.500000000000     0.219300000000     0.133900000000     0          
O2       O      0.893800000000     0.500000000000     0.943000000000     0          
C3       C      0.837200000000     0.500000000000     0.887900000000     0          
H1       H      0.829900000000     0.500000000000     0.915200000000     0          
C4       C      0.808000000000     0.500000000000     0.858800000000     0          
H2       H      0.780700000000     0.500000000000     0.866100000000     0          
O2       O      0.500000000000     0.893800000000     0.943000000000     0          
C3       C      0.500000000000     0.837200000000     0.887900000000     0          
H1       H      0.500000000000     0.829900000000     0.915200000000     0          
C4       C      0.500000000000     0.808000000000     0.858800000000     0          
H2       H      0.500000000000     0.780700000000     0.866100000000     0          
O2       O      0.106200000000     0.500000000000     0.943000000000     0          
C3       C      0.162800000000     0.500000000000     0.887900000000     0          
H1       H      0.170100000000     0.500000000000     0.915200000000     0          
C4       C      0.192000000000     0.500000000000     0.858800000000     0          
H2       H      0.219300000000     0.500000000000     0.866100000000     0          
O2       O      0.500000000000     0.106200000000     0.943000000000     0          
C3       C      0.500000000000     0.162800000000     0.887900000000     0          
H1       H      0.500000000000     0.170100000000     0.915200000000     0          
C4       C      0.500000000000     0.192000000000     0.858800000000     0          
H2       H      0.500000000000     0.219300000000     0.866100000000     0          
O2       O      0.557000000000     0.893800000000     0.000000000000     0          
C3       C      0.612100000000     0.837200000000     0.000000000000     0          
H1       H      0.584800000000     0.829900000000     0.000000000000     0          
C4       C      0.641200000000     0.808000000000     0.000000000000     0          
H2       H      0.633900000000     0.780700000000     0.000000000000     0          
O2       O      0.557000000000     0.106200000000     0.000000000000     0          
C3       C      0.612100000000     0.162800000000     0.000000000000     0          
H1       H      0.584800000000     0.170100000000     0.000000000000     0          
C4       C      0.641200000000     0.192000000000     0.000000000000     0          
H2       H      0.633900000000     0.219300000000     0.000000000000     0          
O2       O      0.893800000000     0.557000000000     0.000000000000     0          
C3       C      0.837200000000     0.612100000000     0.000000000000     0          
H1       H      0.829900000000     0.584800000000     0.000000000000     0          
C4       C      0.808000000000     0.641200000000     0.000000000000     0          
H2       H      0.780700000000     0.633900000000     0.000000000000     0          
O2       O      0.443000000000     0.893800000000     0.000000000000     0          
C3       C      0.387900000000     0.837200000000     0.000000000000     0          
H1       H      0.415200000000     0.829900000000     0.000000000000     0          
C4       C      0.358800000000     0.808000000000     0.000000000000     0          
H2       H      0.366100000000     0.780700000000     0.000000000000     0          
O2       O      0.106200000000     0.443000000000     0.000000000000     0          
C3       C      0.162800000000     0.387900000000     0.000000000000     0          
H1       H      0.170100000000     0.415200000000     0.000000000000     0          
C4       C      0.192000000000     0.358800000000     0.000000000000     0          
H2       H      0.219300000000     0.366100000000     0.000000000000     0          
O2       O      0.443000000000     0.106200000000     0.000000000000     0          
C3       C      0.387900000000     0.162800000000     0.000000000000     0          
H1       H      0.415200000000     0.170100000000     0.000000000000     0          
C4       C      0.358800000000     0.192000000000     0.000000000000     0          
H2       H      0.366100000000     0.219300000000     0.000000000000     0          
O2       O      0.893800000000     0.443000000000     0.000000000000     0          
C3       C      0.837200000000     0.387900000000     0.000000000000     0          
H1       H      0.829900000000     0.415200000000     0.000000000000     0          
C4       C      0.808000000000     0.358800000000     0.000000000000     0          
H2       H      0.780700000000     0.366100000000     0.000000000000     0          
O2       O      0.106200000000     0.557000000000     0.000000000000     0          
C3       C      0.162800000000     0.612100000000     0.000000000000     0          
H1       H      0.170100000000     0.584800000000     0.000000000000     0          
C4       C      0.192000000000     0.641200000000     0.000000000000     0          
H2       H      0.219300000000     0.633900000000     0.000000000000     0          


