data_QAJPEZ01

_audit_creation_method RASPA-1.0
_audit_creation_date 2020-11-2
_audit_author_name 'Rocio Bueno-Perez'

_cell_length_a    26.8167
_cell_length_b    26.8167
_cell_length_c    26.8167
_cell_angle_alpha 90
_cell_angle_beta  90
_cell_angle_gamma 90
_cell_volume      19284.8

_symmetry_cell_setting          triclinic
_symmetry_space_group_name_Hall 'P 1'
_symmetry_space_group_name_H-M  'P 1'
_symmetry_Int_Tables_number     1

_symmetry_equiv_pos_as_xyz 'x,y,z'

loop_
_atom_site_label
_atom_site_type_symbol
_atom_site_fract_x
_atom_site_fract_y
_atom_site_fract_z
_atom_site_charge
C1       C      0.456410000000     0.708620000000     0.716380000000     0          
C2       C      0.455020000000     0.668780000000     0.681730000000     0          
C3       C      0.409830000000     0.642730000000     0.674500000000     0          
C4       C      0.412660000000     0.721300000000     0.742850000000     0          
C5       C      0.368530000000     0.695140000000     0.735140000000     0          
C6       C      0.367050000000     0.656230000000     0.701020000000     0          
C7       C      0.992790000000     0.181860000000     0.741500000000     0          
C8       C      0.992650000000     0.145580000000     0.704770000000     0          
C9       C      0.541170000000     0.301800000000     0.726480000000     0          
C10      C      0.540680000000     0.341650000000     0.691750000000     0          
C11      C      0.579910000000     0.376900000000     0.692770000000     0          
C12      C      0.582740000000     0.296510000000     0.758540000000     0          
C13      C      0.620510000000     0.332150000000     0.759370000000     0          
C14      C      0.618600000000     0.372690000000     0.727200000000     0          
C15      C      0.537520000000     0.791570000000     0.215800000000     0          
C16      C      0.539190000000     0.828280000000     0.179340000000     0          
C17      C      0.000440000000     0.678610000000     0.755360000000     0          
C18      C      0.997000000000     0.644660000000     0.793900000000     0          
C19      C      0.011690000000     0.181800000000     0.257860000000     0          
C20      C      0.010750000000     0.146030000000     0.295250000000     0          
C21      C      0.486590000000     0.317020000000     0.258570000000     0          
C22      C      0.488360000000     0.353360000000     0.295400000000     0          
C23      C      0.961850000000     0.784170000000     0.289730000000     0          
C24      C      0.960510000000     0.819700000000     0.327200000000     0          
C25      C      0.728370000000     0.458440000000     0.689330000000     0          
C26      C      0.690720000000     0.460990000000     0.654130000000     0          
C27      C      0.244650000000     0.512860000000     0.183640000000     0          
C28      C      0.206640000000     0.521360000000     0.147570000000     0          
C29      C      0.218880000000     0.549480000000     0.104630000000     0          
C30      C      0.294160000000     0.527260000000     0.172870000000     0          
C31      C      0.305560000000     0.552060000000     0.128700000000     0          
C32      C      0.267870000000     0.564150000000     0.095250000000     0          
C33      C      0.702320000000     0.552010000000     0.282050000000     0          
C34      C      0.665570000000     0.550400000000     0.320030000000     0          
C35      C      0.640290000000     0.594720000000     0.333300000000     0          
C36      C      0.711850000000     0.597670000000     0.257560000000     0          
C37      C      0.686110000000     0.640880000000     0.271010000000     0          
C38      C      0.650540000000     0.639430000000     0.308830000000     0          
C39      C      0.743440000000     0.987480000000     0.811980000000     0          
C40      C      0.707250000000     0.980040000000     0.849830000000     0          
C41      C      0.720930000000     0.952120000000     0.892480000000     0          
C42      C      0.792920000000     0.970940000000     0.819930000000     0          
C43      C      0.806000000000     0.946420000000     0.863760000000     0          
C44      C      0.769940000000     0.936270000000     0.899530000000     0          
C45      C      0.244710000000     0.016890000000     0.316790000000     0          
C46      C      0.206760000000     0.022270000000     0.353410000000     0          
C47      C      0.219260000000     0.048140000000     0.397850000000     0          
C48      C      0.294010000000     0.032080000000     0.327820000000     0          
C49      C      0.305240000000     0.055280000000     0.372800000000     0          
C50      C      0.267790000000     0.064080000000     0.407350000000     0          
C51      C      0.279660000000     0.535990000000     0.702360000000     0          
C52      C      0.315980000000     0.537100000000     0.665690000000     0          
C53      C      0.286980000000     0.947480000000     0.792220000000     0          
C54      C      0.323690000000     0.949320000000     0.830280000000     0          
C55      C      0.339320000000     0.904460000000     0.853140000000     0          
C56      C      0.268350000000     0.900620000000     0.776940000000     0          
C57      C      0.284600000000     0.856800000000     0.799790000000     0          
C58      C      0.319760000000     0.858740000000     0.837940000000     0          
C59      C      0.795700000000     0.963340000000     0.280880000000     0          
C60      C      0.832390000000     0.962090000000     0.317080000000     0          
C61      C      0.687360000000     0.730550000000     0.459760000000     0          
C62      C      0.653580000000     0.691500000000     0.461430000000     0          
C63      C      0.214590000000     0.206760000000     0.448080000000     0          
C64      C      0.175200000000     0.171420000000     0.449320000000     0          
C65      C      0.156250000000     0.152470000000     0.403970000000     0          
C66      C      0.236140000000     0.219260000000     0.401630000000     0          
C67      C      0.217540000000     0.199200000000     0.357390000000     0          
C68      C      0.177440000000     0.166270000000     0.358520000000     0          
C69      C      0.284090000000     0.209260000000     0.034730000000     0          
C70      C      0.319200000000     0.171330000000     0.037240000000     0          
C71      C      0.705920000000     0.279530000000     0.539120000000     0          
C72      C      0.665300000000     0.313250000000     0.540750000000     0          
C73      C      0.635100000000     0.314910000000     0.583880000000     0          
C74      C      0.716470000000     0.250060000000     0.581550000000     0          
C75      C      0.686020000000     0.252090000000     0.623540000000     0          
C76      C      0.645100000000     0.283850000000     0.624390000000     0          
C77      C      0.716420000000     0.792940000000     0.046080000000     0          
C78      C      0.678620000000     0.829980000000     0.046940000000     0          
C79      C      0.664150000000     0.851250000000     0.092920000000     0          
C80      C      0.738850000000     0.778630000000     0.091620000000     0          
C81      C      0.723890000000     0.800090000000     0.136630000000     0          
C82      C      0.686770000000     0.836350000000     0.137260000000     0          
C83      C      0.186670000000     0.761480000000     0.515350000000     0          
C84      C      0.149730000000     0.797830000000     0.516180000000     0          
C85      C      0.316130000000     0.758480000000     0.989080000000     0          
C86      C      0.351630000000     0.795700000000     0.988520000000     0          
C87      C      0.830470000000     0.253090000000     0.977640000000     0          
C88      C      0.856730000000     0.287540000000     0.009910000000     0          
C89      C      0.717480000000     0.462980000000     0.293950000000     0          
C90      C      0.681250000000     0.461360000000     0.330770000000     0          
C91      C      0.681870000000     0.029470000000     0.758980000000     0          
C92      C      0.646270000000     0.025360000000     0.795800000000     0          
C93      C      0.182420000000     0.977530000000     0.260610000000     0          
C94      C      0.146860000000     0.980620000000     0.297780000000     0          
C95      C      0.292040000000     0.038000000000     0.783850000000     0          
C96      C      0.329020000000     0.039600000000     0.820050000000     0          
C97      C      0.780540000000     0.053160000000     0.299220000000     0          
C98      C      0.818830000000     0.050590000000     0.335760000000     0          
C99      C      0.831290000000     0.094160000000     0.362790000000     0          
C100     C      0.754790000000     0.098580000000     0.292370000000     0          
C101     C      0.767650000000     0.140970000000     0.319640000000     0          
C102     C      0.805950000000     0.138790000000     0.354580000000     0          
C103     C      0.702210000000     0.538800000000     0.723160000000     0          
C104     C      0.661460000000     0.539610000000     0.689770000000     0          
C105     C      0.628160000000     0.580470000000     0.691110000000     0          
C106     C      0.710660000000     0.580520000000     0.754340000000     0          
C107     C      0.677080000000     0.620030000000     0.755510000000     0          
C108     C      0.635500000000     0.619580000000     0.724650000000     0          
C109     C      0.183090000000     0.477000000000     0.239750000000     0          
C110     C      0.146510000000     0.482110000000     0.203400000000     0          
C111     C      0.292000000000     0.446390000000     0.712190000000     0          
C112     C      0.331160000000     0.448230000000     0.676760000000     0          
C113     C      0.355650000000     0.403630000000     0.663170000000     0          
C114     C      0.277350000000     0.399740000000     0.731850000000     0          
C115     C      0.301920000000     0.356160000000     0.717810000000     0          
C116     C      0.340970000000     0.358110000000     0.683700000000     0          
C117     C      0.017610000000     0.745050000000     0.814770000000     0          
C118     C      0.009250000000     0.711780000000     0.855030000000     0          
C119     C      0.008250000000     0.732700000000     0.904010000000     0          
C120     C      0.031600000000     0.794890000000     0.824220000000     0          
C121     C      0.033590000000     0.813190000000     0.872640000000     0          
C122     C      0.020450000000     0.782630000000     0.912250000000     0          
C123     C      0.984910000000     0.245270000000     0.316860000000     0          
C124     C      0.979850000000     0.208200000000     0.354420000000     0          
C125     C      0.958430000000     0.222900000000     0.400450000000     0          
C126     C      0.975120000000     0.295770000000     0.328550000000     0          
C127     C      0.957990000000     0.309320000000     0.375550000000     0          
C128     C      0.948740000000     0.272890000000     0.411060000000     0          
C129     C      0.543080000000     0.724820000000     0.693980000000     0          
C130     C      0.541380000000     0.686530000000     0.659280000000     0          
C131     C      0.027110000000     0.242080000000     0.682740000000     0          
C132     C      0.030960000000     0.203870000000     0.646390000000     0          
C133     C      0.057960000000     0.214090000000     0.602300000000     0          
C134     C      0.042730000000     0.290940000000     0.670550000000     0          
C135     C      0.066320000000     0.300650000000     0.625280000000     0          
C136     C      0.075200000000     0.262010000000     0.591880000000     0          
C137     C      0.506920000000     0.253210000000     0.319680000000     0          
C138     C      0.515260000000     0.290770000000     0.356040000000     0          
C139     C      0.536860000000     0.275830000000     0.402000000000     0          
C140     C      0.511000000000     0.202410000000     0.333320000000     0          
C141     C      0.528280000000     0.188900000000     0.380330000000     0          
C142     C      0.542520000000     0.225540000000     0.414050000000     0          
C143     C      0.051260000000     0.798010000000     0.278890000000     0          
C144     C      0.049900000000     0.834160000000     0.317420000000     0          
C145     C      0.094520000000     0.858340000000     0.331650000000     0          
C146     C      0.097090000000     0.787750000000     0.254980000000     0          
C147     C      0.140700000000     0.812010000000     0.269740000000     0          
C148     C      0.139440000000     0.847160000000     0.307950000000     0          
C149     C      0.462980000000     0.270880000000     0.691700000000     0          
C150     C      0.464660000000     0.307490000000     0.655240000000     0          
C151     C      0.446770000000     0.788390000000     0.209170000000     0          
C152     C      0.448880000000     0.823620000000     0.169710000000     0          
C153     C      0.404310000000     0.837560000000     0.145310000000     0          
C154     C      0.399650000000     0.771370000000     0.225590000000     0          
C155     C      0.356110000000     0.785750000000     0.201010000000     0          
C156     C      0.358540000000     0.818020000000     0.160450000000     0          
C157     C      0.722710000000     0.703640000000     0.539210000000     0          
C158     C      0.689170000000     0.662860000000     0.540260000000     0          
C159     C      0.690680000000     0.629620000000     0.581090000000     0          
C160     C      0.756280000000     0.710420000000     0.579280000000     0          
C161     C      0.757520000000     0.676790000000     0.618810000000     0          
C162     C      0.725190000000     0.636320000000     0.619450000000     0          
C163     C      0.211250000000     0.212590000000     0.538840000000     0          
C164     C      0.174670000000     0.176000000000     0.540130000000     0          
C165     C      0.726010000000     0.307900000000     0.455000000000     0          
C166     C      0.687680000000     0.342540000000     0.457510000000     0          
C167     C      0.710840000000     0.787930000000     0.954800000000     0          
C168     C      0.674120000000     0.824170000000     0.954390000000     0          
C169     C      0.241990000000     0.817610000000     0.470280000000     0          
C170     C      0.202500000000     0.852750000000     0.466530000000     0          
C171     C      0.209480000000     0.894860000000     0.435660000000     0          
C172     C      0.289260000000     0.830070000000     0.450580000000     0          
C173     C      0.295980000000     0.873650000000     0.423120000000     0          
C174     C      0.255820000000     0.905230000000     0.414520000000     0          
C175     C      0.299070000000     0.220540000000     0.945220000000     0          
C176     C      0.335160000000     0.182090000000     0.946550000000     0          
C177     C      0.360530000000     0.168580000000     0.902570000000     0          
C178     C      0.289430000000     0.244860000000     0.899490000000     0          
C179     C      0.315000000000     0.231100000000     0.856260000000     0          
C180     C      0.350510000000     0.193140000000     0.857810000000     0          
C181     C      0.254690000000     0.817440000000     0.025780000000     0          
C182     C      0.293110000000     0.853690000000     0.028690000000     0          
C183     C      0.282450000000     0.898770000000     0.054010000000     0          
C184     C      0.205820000000     0.830020000000     0.041060000000     0          
C185     C      0.195910000000     0.876010000000     0.062950000000     0          
C186     C      0.234410000000     0.909780000000     0.070530000000     0          
C187     C      0.757350000000     0.311160000000     0.978130000000     0          
C188     C      0.789540000000     0.351420000000     0.990360000000     0          
C189     C      0.767620000000     0.399460000000     0.994660000000     0          
C190     C      0.706920000000     0.320340000000     0.966090000000     0          
C191     C      0.687510000000     0.368290000000     0.968200000000     0          
C192     C      0.717510000000     0.407550000000     0.983420000000     0          
C193     C      0.509530000000     0.820400000000     0.755420000000     0          
C194     C      0.506980000000     0.854850000000     0.793750000000     0          
C195     C      0.053700000000     0.286240000000     0.791380000000     0          
C196     C      0.051830000000     0.326030000000     0.826080000000     0          
C197     C      0.096800000000     0.348010000000     0.842580000000     0          
C198     C      0.100700000000     0.266880000000     0.777410000000     0          
C199     C      0.144660000000     0.287950000000     0.795590000000     0          
C200     C      0.142730000000     0.328870000000     0.827490000000     0          
C201     C      0.473080000000     0.682160000000     0.257120000000     0          
C202     C      0.469060000000     0.646530000000     0.296110000000     0          
C203     C      0.440140000000     0.603300000000     0.287390000000     0          
C204     C      0.455890000000     0.669500000000     0.208900000000     0          
C205     C      0.430330000000     0.625040000000     0.200650000000     0          
C206     C      0.421290000000     0.592680000000     0.240120000000     0          
C207     C      0.491430000000     0.180940000000     0.756930000000     0          
C208     C      0.493500000000     0.145000000000     0.794150000000     0          
C209     C      0.950180000000     0.285420000000     0.208910000000     0          
C210     C      0.949890000000     0.324490000000     0.173620000000     0          
C211     C      0.904240000000     0.344610000000     0.157140000000     0          
C212     C      0.904140000000     0.266580000000     0.226280000000     0          
C213     C      0.859180000000     0.286850000000     0.209520000000     0          
C214     C      0.859230000000     0.325850000000     0.175160000000     0          
C215     C      0.959420000000     0.797840000000     0.724690000000     0          
C216     C      0.959150000000     0.838760000000     0.691750000000     0          
C217     C      0.918330000000     0.872160000000     0.692950000000     0          
C218     C      0.918120000000     0.789080000000     0.755950000000     0          
C219     C      0.878030000000     0.822140000000     0.756400000000     0          
C220     C      0.878500000000     0.863990000000     0.725610000000     0          
C221     C      0.545530000000     0.203520000000     0.220200000000     0          
C222     C      0.545230000000     0.164200000000     0.184840000000     0          
C223     C      0.588560000000     0.134850000000     0.178730000000     0          
C224     C      0.590230000000     0.214140000000     0.246110000000     0          
C225     C      0.632630000000     0.184920000000     0.239170000000     0          
C226     C      0.631640000000     0.145170000000     0.205920000000     0          
C227     C      0.029790000000     0.685230000000     0.240550000000     0          
C228     C      0.031780000000     0.648040000000     0.202950000000     0          
C229     C      0.060410000000     0.604740000000     0.212370000000     0          
C230     C      0.051670000000     0.675710000000     0.287580000000     0          
C231     C      0.077000000000     0.631310000000     0.296610000000     0          
C232     C      0.081850000000     0.596170000000     0.258920000000     0          
C233     C      0.275640000000     0.531990000000     0.299560000000     0          
C234     C      0.312450000000     0.534170000000     0.335860000000     0          
C235     C      0.752750000000     0.492600000000     0.815770000000     0          
C236     C      0.788120000000     0.503580000000     0.853300000000     0          
C237     C      0.769840000000     0.520460000000     0.900040000000     0          
C238     C      0.701620000000     0.489460000000     0.828230000000     0          
C239     C      0.685120000000     0.502640000000     0.875610000000     0          
C240     C      0.718990000000     0.519730000000     0.910860000000     0          
C241     C      0.284960000000     0.954970000000     0.207830000000     0          
C242     C      0.322050000000     0.954740000000     0.172050000000     0          
C243     C      0.760400000000     0.485140000000     0.186990000000     0          
C244     C      0.797080000000     0.484540000000     0.150580000000     0          
C245     C      0.767640000000     0.971380000000     0.694870000000     0          
C246     C      0.805420000000     0.967120000000     0.660300000000     0          
C247     C      0.245690000000     0.478370000000     0.817050000000     0          
C248     C      0.207960000000     0.474150000000     0.853890000000     0          
C249     C      0.220290000000     0.450210000000     0.899320000000     0          
C250     C      0.295540000000     0.466580000000     0.829580000000     0          
C251     C      0.307060000000     0.446240000000     0.875920000000     0          
C252     C      0.269340000000     0.436760000000     0.910160000000     0          
C253     C      0.737660000000     0.038550000000     0.186280000000     0          
C254     C      0.698630000000     0.038880000000     0.150410000000     0          
C255     C      0.702000000000     0.073010000000     0.110360000000     0          
C256     C      0.780850000000     0.067510000000     0.177750000000     0          
C257     C      0.784150000000     0.098850000000     0.136490000000     0          
C258     C      0.744460000000     0.102210000000     0.103390000000     0          
C259     C      0.240950000000     0.007120000000     0.684570000000     0          
C260     C      0.205100000000     0.006960000000     0.647160000000     0          
C261     C      0.312920000000     0.262240000000     0.519140000000     0          
C262     C      0.349620000000     0.298810000000     0.519480000000     0          
C263     C      0.812110000000     0.755400000000     0.482550000000     0          
C264     C      0.852680000000     0.788930000000     0.488860000000     0          
C265     C      0.901520000000     0.767860000000     0.488100000000     0          
C266     C      0.821240000000     0.704820000000     0.470530000000     0          
C267     C      0.869480000000     0.686320000000     0.468120000000     0          
C268     C      0.909410000000     0.717490000000     0.477920000000     0          
C269     C      0.185370000000     0.258610000000     0.968660000000     0          
C270     C      0.147340000000     0.295620000000     0.968320000000     0          
C271     C      0.102510000000     0.284540000000     0.942710000000     0          
C272     C      0.175850000000     0.211270000000     0.947380000000     0          
C273     C      0.130850000000     0.201400000000     0.923530000000     0          
C274     C      0.094560000000     0.238150000000     0.920650000000     0          
C275     C      0.289840000000     0.710310000000     0.446470000000     0          
C276     C      0.328840000000     0.674520000000     0.448610000000     0          
C277     C      0.351380000000     0.658310000000     0.403840000000     0          
C278     C      0.272330000000     0.725920000000     0.399250000000     0          
C279     C      0.295240000000     0.709540000000     0.355520000000     0          
C280     C      0.335000000000     0.676290000000     0.357880000000     0          
C281     C      0.816510000000     0.738640000000     0.977350000000     0          
C282     C      0.852490000000     0.701810000000     0.980300000000     0          
C283     C      0.821490000000     0.246180000000     0.490510000000     0          
C284     C      0.856320000000     0.208270000000     0.495470000000     0          
C285     C      0.707460000000     0.223500000000     0.033470000000     0          
C286     C      0.664830000000     0.191920000000     0.035030000000     0          
C287     C      0.630420000000     0.197960000000     0.074450000000     0          
C288     C      0.715540000000     0.257880000000     0.072510000000     0          
C289     C      0.680770000000     0.263330000000     0.110610000000     0          
C290     C      0.637980000000     0.234100000000     0.111140000000     0          
C291     C      0.209360000000     0.710010000000     0.054170000000     0          
C292     C      0.170600000000     0.674230000000     0.051550000000     0          
C293     C      0.147640000000     0.658170000000     0.096250000000     0          
C294     C      0.225740000000     0.726860000000     0.101330000000     0          
C295     C      0.202660000000     0.710350000000     0.144860000000     0          
C296     C      0.163500000000     0.676410000000     0.142320000000     0          
C297     C      0.285370000000     0.046480000000     0.209110000000     0          
C298     C      0.324760000000     0.047460000000     0.173810000000     0          
C299     C      0.344250000000     0.093790000000     0.158170000000     0          
C300     C      0.265110000000     0.092220000000     0.225830000000     0          
C301     C      0.284760000000     0.137550000000     0.209690000000     0          
C302     C      0.324460000000     0.138340000000     0.176330000000     0          
C303     C      0.815800000000     0.530250000000     0.243170000000     0          
C304     C      0.852260000000     0.532590000000     0.204870000000     0          
C305     C      0.895480000000     0.561660000000     0.213300000000     0          
C306     C      0.826310000000     0.551490000000     0.290260000000     0          
C307     C      0.870620000000     0.577380000000     0.298380000000     0          
C308     C      0.904650000000     0.583300000000     0.259710000000     0          
C309     C      0.798000000000     0.053890000000     0.720290000000     0          
C310     C      0.837680000000     0.050680000000     0.685580000000     0          
C311     C      0.870780000000     0.091330000000     0.680840000000     0          
C312     C      0.793120000000     0.097070000000     0.750050000000     0          
C313     C      0.826310000000     0.136690000000     0.744810000000     0          
C314     C      0.864760000000     0.133980000000     0.710090000000     0          
C315     C      0.688250000000     0.977720000000     0.235780000000     0          
C316     C      0.652300000000     0.976590000000     0.198770000000     0          
C317     C      0.180290000000     0.978660000000     0.746510000000     0          
C318     C      0.144200000000     0.973000000000     0.708450000000     0          
C319     C      0.099470000000     0.947670000000     0.719760000000     0          
C320     C      0.167190000000     0.966980000000     0.796230000000     0          
C321     C      0.121110000000     0.945490000000     0.807100000000     0          
C322     C      0.087950000000     0.934520000000     0.768740000000     0          
C323     C      0.297670000000     0.445690000000     0.281340000000     0          
C324     C      0.334830000000     0.447710000000     0.319180000000     0          
C325     C      0.360680000000     0.403670000000     0.332210000000     0          
C326     C      0.289430000000     0.400380000000     0.255870000000     0          
C327     C      0.315230000000     0.357270000000     0.269710000000     0          
C328     C      0.350140000000     0.358750000000     0.308190000000     0          
C329     C      0.819510000000     0.486450000000     0.754500000000     0          
C330     C      0.854620000000     0.490080000000     0.792150000000     0          
C331     C      0.183880000000     0.508560000000     0.757770000000     0          
C332     C      0.147980000000     0.509200000000     0.794890000000     0          
C333     C      0.041730000000     0.285300000000     0.207900000000     0          
C334     C      0.042680000000     0.323200000000     0.172590000000     0          
C335     C      0.041110000000     0.770450000000     0.689980000000     0          
C336     C      0.038250000000     0.809260000000     0.656130000000     0          
C337     C      0.503990000000     0.752490000000     0.815380000000     0          
C338     C      0.497070000000     0.787370000000     0.854670000000     0          
C339     C      0.486070000000     0.767880000000     0.902780000000     0          
C340     C      0.505750000000     0.700870000000     0.826120000000     0          
C341     C      0.497850000000     0.683410000000     0.874240000000     0          
C342     C      0.487120000000     0.716760000000     0.912230000000     0          
C343     C      0.962210000000     0.283310000000     0.788290000000     0          
C344     C      0.959080000000     0.319870000000     0.824450000000     0          
C345     C      0.459370000000     0.223140000000     0.198360000000     0          
C346     C      0.460170000000     0.186640000000     0.161710000000     0          
C347     C      0.982490000000     0.738870000000     0.184510000000     0          
C348     C      0.981950000000     0.701700000000     0.148640000000     0          
C349     C      0.513420000000     0.739630000000     0.314680000000     0          
C350     C      0.514100000000     0.703060000000     0.351350000000     0          
C351     C      0.497470000000     0.246460000000     0.819230000000     0          
C352     C      0.507640000000     0.210220000000     0.856360000000     0          
C353     C      0.524790000000     0.227790000000     0.903310000000     0          
C354     C      0.493790000000     0.297280000000     0.832740000000     0          
C355     C      0.506550000000     0.312880000000     0.880500000000     0          
C356     C      0.523840000000     0.278450000000     0.915100000000     0          
C357     C      0.258570000000     0.315980000000     0.470090000000     0          
C358     C      0.297370000000     0.351980000000     0.467200000000     0          
C359     C      0.290040000000     0.394000000000     0.436210000000     0          
C360     C      0.211990000000     0.326440000000     0.447680000000     0          
C361     C      0.205330000000     0.369280000000     0.419080000000     0          
C362     C      0.244600000000     0.402420000000     0.412420000000     0          
C363     C      0.753200000000     0.822590000000     0.498130000000     0          
C364     C      0.791960000000     0.856600000000     0.500270000000     0          
C365     C      0.286160000000     0.710420000000     0.537460000000     0          
C366     C      0.322500000000     0.673580000000     0.539300000000     0          
C367     C      0.755350000000     0.682430000000     0.018420000000     0          
C368     C      0.793970000000     0.646570000000     0.024220000000     0          
C369     C      0.783080000000     0.603080000000     0.052290000000     0          
C370     C      0.706500000000     0.670980000000     0.034550000000     0          
C371     C      0.696370000000     0.626050000000     0.058490000000     0          
C372     C      0.734710000000     0.592620000000     0.068270000000     0          
C373     C      0.754460000000     0.185090000000     0.490320000000     0          
C374     C      0.789190000000     0.146820000000     0.501530000000     0          
C375     C      0.769680000000     0.099670000000     0.515710000000     0          
C376     C      0.703410000000     0.173260000000     0.484600000000     0          
C377     C      0.686070000000     0.125480000000     0.494750000000     0          
C378     C      0.718860000000     0.089240000000     0.511840000000     0          
C379     C      0.240720000000     0.316210000000     0.011780000000     0          
C380     C      0.203280000000     0.351900000000     0.013250000000     0          
C381     C      0.734700000000     0.180300000000     0.956260000000     0          
C382     C      0.693820000000     0.148870000000     0.959790000000     0          
C383     C      0.214450000000     0.707590000000     0.961320000000     0          
C384     C      0.177660000000     0.671660000000     0.960230000000     0          
Zr385    Zr     0.500000000000     0.500000000000     0.592180000000     0          
Zr386    Zr     0.500000000000     0.000000000000     0.092180000000     0          
Zr387    Zr     0.000000000000     0.500000000000     0.092180000000     0          
Zr388    Zr     0.000000000000     0.000000000000     0.592180000000     0          
Zr389    Zr     0.500000000000     0.500000000000     0.407820000000     0          
Zr390    Zr     0.500000000000     0.000000000000     0.907820000000     0          
Zr391    Zr     0.000000000000     0.500000000000     0.907820000000     0          
Zr392    Zr     0.000000000000     0.000000000000     0.407820000000     0          
Zr393    Zr     0.592180000000     0.500000000000     0.500000000000     0          
Zr394    Zr     0.592180000000     0.000000000000     0.000000000000     0          
Zr395    Zr     0.092180000000     0.500000000000     0.000000000000     0          
Zr396    Zr     0.092180000000     0.000000000000     0.500000000000     0          
Zr397    Zr     0.407820000000     0.500000000000     0.500000000000     0          
Zr398    Zr     0.407820000000     0.000000000000     0.000000000000     0          
Zr399    Zr     0.907820000000     0.500000000000     0.000000000000     0          
Zr400    Zr     0.907820000000     0.000000000000     0.500000000000     0          
Zr401    Zr     0.500000000000     0.592180000000     0.500000000000     0          
Zr402    Zr     0.500000000000     0.092180000000     0.000000000000     0          
Zr403    Zr     0.000000000000     0.592180000000     0.000000000000     0          
Zr404    Zr     0.000000000000     0.092180000000     0.500000000000     0          
Zr405    Zr     0.500000000000     0.407820000000     0.500000000000     0          
Zr406    Zr     0.500000000000     0.907820000000     0.000000000000     0          
Zr407    Zr     0.000000000000     0.407820000000     0.000000000000     0          
Zr408    Zr     0.000000000000     0.907820000000     0.500000000000     0          
O409     O      0.500000000000     0.572340000000     0.632000000000     0          
O410     O      0.500000000000     0.072340000000     0.132000000000     0          
O411     O      0.000000000000     0.572340000000     0.132000000000     0          
O412     O      0.000000000000     0.072340000000     0.632000000000     0          
O413     O      0.500000000000     0.427660000000     0.632000000000     0          
O414     O      0.500000000000     0.927660000000     0.132000000000     0          
O415     O      0.000000000000     0.427660000000     0.132000000000     0          
O416     O      0.000000000000     0.927660000000     0.632000000000     0          
O417     O      0.500000000000     0.572340000000     0.368000000000     0          
O418     O      0.500000000000     0.072340000000     0.868000000000     0          
O419     O      0.000000000000     0.572340000000     0.868000000000     0          
O420     O      0.000000000000     0.072340000000     0.368000000000     0          
O421     O      0.500000000000     0.427660000000     0.368000000000     0          
O422     O      0.500000000000     0.927660000000     0.868000000000     0          
O423     O      0.000000000000     0.427660000000     0.868000000000     0          
O424     O      0.000000000000     0.927660000000     0.368000000000     0          
O425     O      0.632000000000     0.500000000000     0.572340000000     0          
O426     O      0.632000000000     0.000000000000     0.072340000000     0          
O427     O      0.132000000000     0.500000000000     0.072340000000     0          
O428     O      0.132000000000     0.000000000000     0.572340000000     0          
O429     O      0.632000000000     0.500000000000     0.427660000000     0          
O430     O      0.632000000000     0.000000000000     0.927660000000     0          
O431     O      0.132000000000     0.500000000000     0.927660000000     0          
O432     O      0.132000000000     0.000000000000     0.427660000000     0          
O433     O      0.368000000000     0.500000000000     0.572340000000     0          
O434     O      0.368000000000     0.000000000000     0.072340000000     0          
O435     O      0.868000000000     0.500000000000     0.072340000000     0          
O436     O      0.868000000000     0.000000000000     0.572340000000     0          
O437     O      0.368000000000     0.500000000000     0.427660000000     0          
O438     O      0.368000000000     0.000000000000     0.927660000000     0          
O439     O      0.868000000000     0.500000000000     0.927660000000     0          
O440     O      0.868000000000     0.000000000000     0.427660000000     0          
O441     O      0.572340000000     0.632000000000     0.500000000000     0          
O442     O      0.572340000000     0.132000000000     0.000000000000     0          
O443     O      0.072340000000     0.632000000000     0.000000000000     0          
O444     O      0.072340000000     0.132000000000     0.500000000000     0          
O445     O      0.427660000000     0.632000000000     0.500000000000     0          
O446     O      0.427660000000     0.132000000000     0.000000000000     0          
O447     O      0.927660000000     0.632000000000     0.000000000000     0          
O448     O      0.927660000000     0.132000000000     0.500000000000     0          
O449     O      0.572340000000     0.368000000000     0.500000000000     0          
O450     O      0.572340000000     0.868000000000     0.000000000000     0          
O451     O      0.072340000000     0.368000000000     0.000000000000     0          
O452     O      0.072340000000     0.868000000000     0.500000000000     0          
O453     O      0.427660000000     0.368000000000     0.500000000000     0          
O454     O      0.427660000000     0.868000000000     0.000000000000     0          
O455     O      0.927660000000     0.368000000000     0.000000000000     0          
O456     O      0.927660000000     0.868000000000     0.500000000000     0          
O457     O      0.572340000000     0.500000000000     0.368000000000     0          
O458     O      0.572340000000     0.000000000000     0.868000000000     0          
O459     O      0.072340000000     0.500000000000     0.868000000000     0          
O460     O      0.072340000000     0.000000000000     0.368000000000     0          
O461     O      0.427660000000     0.500000000000     0.368000000000     0          
O462     O      0.427660000000     0.000000000000     0.868000000000     0          
O463     O      0.927660000000     0.500000000000     0.868000000000     0          
O464     O      0.927660000000     0.000000000000     0.368000000000     0          
O465     O      0.572340000000     0.500000000000     0.632000000000     0          
O466     O      0.572340000000     0.000000000000     0.132000000000     0          
O467     O      0.072340000000     0.500000000000     0.132000000000     0          
O468     O      0.072340000000     0.000000000000     0.632000000000     0          
O469     O      0.427660000000     0.500000000000     0.632000000000     0          
O470     O      0.427660000000     0.000000000000     0.132000000000     0          
O471     O      0.927660000000     0.500000000000     0.132000000000     0          
O472     O      0.927660000000     0.000000000000     0.632000000000     0          
O473     O      0.500000000000     0.632000000000     0.427660000000     0          
O474     O      0.500000000000     0.132000000000     0.927660000000     0          
O475     O      0.000000000000     0.632000000000     0.927660000000     0          
O476     O      0.000000000000     0.132000000000     0.427660000000     0          
O477     O      0.500000000000     0.632000000000     0.572340000000     0          
O478     O      0.500000000000     0.132000000000     0.072340000000     0          
O479     O      0.000000000000     0.632000000000     0.072340000000     0          
O480     O      0.000000000000     0.132000000000     0.572340000000     0          
O481     O      0.500000000000     0.368000000000     0.427660000000     0          
O482     O      0.500000000000     0.868000000000     0.927660000000     0          
O483     O      0.000000000000     0.368000000000     0.927660000000     0          
O484     O      0.000000000000     0.868000000000     0.427660000000     0          
O485     O      0.500000000000     0.368000000000     0.572340000000     0          
O486     O      0.500000000000     0.868000000000     0.072340000000     0          
O487     O      0.000000000000     0.368000000000     0.072340000000     0          
O488     O      0.000000000000     0.868000000000     0.572340000000     0          
O489     O      0.632000000000     0.572340000000     0.500000000000     0          
O490     O      0.632000000000     0.072340000000     0.000000000000     0          
O491     O      0.132000000000     0.572340000000     0.000000000000     0          
O492     O      0.132000000000     0.072340000000     0.500000000000     0          
O493     O      0.632000000000     0.427660000000     0.500000000000     0          
O494     O      0.632000000000     0.927660000000     0.000000000000     0          
O495     O      0.132000000000     0.427660000000     0.000000000000     0          
O496     O      0.132000000000     0.927660000000     0.500000000000     0          
O497     O      0.368000000000     0.572340000000     0.500000000000     0          
O498     O      0.368000000000     0.072340000000     0.000000000000     0          
O499     O      0.868000000000     0.572340000000     0.000000000000     0          
O500     O      0.868000000000     0.072340000000     0.500000000000     0          
O501     O      0.368000000000     0.427660000000     0.500000000000     0          
O502     O      0.368000000000     0.927660000000     0.000000000000     0          
O503     O      0.868000000000     0.427660000000     0.000000000000     0          
O504     O      0.868000000000     0.927660000000     0.500000000000     0          
C505     C      0.499550000000     0.617670000000     0.617400000000     0          
C506     C      0.498650000000     0.657030000000     0.654610000000     0          
C507     C      0.501640000000     0.734840000000     0.723800000000     0          
C508     C      0.500310000000     0.117610000000     0.117550000000     0          
C509     C      0.502040000000     0.156190000000     0.155730000000     0          
C510     C      0.501120000000     0.231190000000     0.228530000000     0          
C511     C      0.002000000000     0.617660000000     0.117870000000     0          
C512     C      0.006100000000     0.656110000000     0.157010000000     0          
C513     C      0.006430000000     0.731260000000     0.230050000000     0          
C514     C      0.002950000000     0.117740000000     0.617680000000     0          
C515     C      0.009520000000     0.156330000000     0.656450000000     0          
C516     C      0.008940000000     0.230110000000     0.730750000000     0          
C517     C      0.500530000000     0.382400000000     0.617600000000     0          
C518     C      0.502040000000     0.343840000000     0.655900000000     0          
C519     C      0.500220000000     0.268150000000     0.728030000000     0          
C520     C      0.499250000000     0.882410000000     0.117560000000     0          
C521     C      0.495490000000     0.844020000000     0.155850000000     0          
C522     C      0.491920000000     0.770950000000     0.230750000000     0          
C523     C      0.000040000000     0.382430000000     0.117480000000     0          
C524     C      0.998300000000     0.343880000000     0.155310000000     0          
C525     C      0.996500000000     0.266830000000     0.226510000000     0          
C526     C      0.999450000000     0.881710000000     0.619530000000     0          
C527     C      0.998990000000     0.843610000000     0.657490000000     0          
C528     C      0.003490000000     0.764220000000     0.725020000000     0          
C529     C      0.497720000000     0.617710000000     0.382100000000     0          
C530     C      0.492700000000     0.656160000000     0.342780000000     0          
C531     C      0.493110000000     0.729870000000     0.267630000000     0          
C532     C      0.501070000000     0.118210000000     0.882300000000     0          
C533     C      0.502100000000     0.158410000000     0.844110000000     0          
C534     C      0.494380000000     0.231550000000     0.768850000000     0          
C535     C      0.999930000000     0.620200000000     0.881630000000     0          
C536     C      0.001150000000     0.660020000000     0.843860000000     0          
C537     C      0.010220000000     0.728430000000     0.765400000000     0          
C538     C      0.998220000000     0.118140000000     0.382280000000     0          
C539     C      0.995170000000     0.158030000000     0.343810000000     0          
C540     C      0.998700000000     0.231070000000     0.268110000000     0          
C541     C      0.501340000000     0.381810000000     0.382310000000     0          
C542     C      0.503080000000     0.341520000000     0.344260000000     0          
C543     C      0.496760000000     0.267260000000     0.269950000000     0          
C544     C      0.499650000000     0.879710000000     0.881520000000     0          
C545     C      0.500270000000     0.839690000000     0.843450000000     0          
C546     C      0.507330000000     0.769610000000     0.765700000000     0          
C547     C      0.000690000000     0.380480000000     0.881600000000     0          
C548     C      0.005110000000     0.342330000000     0.843680000000     0          
C549     C      0.008700000000     0.266760000000     0.771400000000     0          
C550     C      0.000490000000     0.881680000000     0.380350000000     0          
C551     C      0.004080000000     0.844320000000     0.341440000000     0          
C552     C      0.006800000000     0.772480000000     0.266060000000     0          
C553     C      0.617560000000     0.500180000000     0.617460000000     0          
C554     C      0.656320000000     0.500230000000     0.655120000000     0          
C555     C      0.733440000000     0.496170000000     0.724740000000     0          
C556     C      0.617810000000     0.001860000000     0.117690000000     0          
C557     C      0.656820000000     0.006470000000     0.156170000000     0          
C558     C      0.732270000000     0.009840000000     0.230000000000     0          
C559     C      0.118030000000     0.501410000000     0.117810000000     0          
C560     C      0.157520000000     0.502860000000     0.156640000000     0          
C561     C      0.232270000000     0.491100000000     0.230010000000     0          
C562     C      0.117720000000     0.997660000000     0.617910000000     0          
C563     C      0.156130000000     0.991970000000     0.657140000000     0          
C564     C      0.229190000000     0.993720000000     0.733630000000     0          
C565     C      0.617500000000     0.500790000000     0.382460000000     0          
C566     C      0.655470000000     0.504560000000     0.344060000000     0          
C567     C      0.728630000000     0.507820000000     0.269830000000     0          
C568     C      0.619870000000     0.999410000000     0.881490000000     0          
C569     C      0.658660000000     0.999950000000     0.843030000000     0          
C570     C      0.729680000000     0.010950000000     0.766810000000     0          
C571     C      0.119980000000     0.498000000000     0.881480000000     0          
C572     C      0.159220000000     0.492750000000     0.843240000000     0          
C573     C      0.232510000000     0.493320000000     0.768250000000     0          
C574     C      0.118070000000     0.001310000000     0.382320000000     0          
C575     C      0.157820000000     0.002700000000     0.343980000000     0          
C576     C      0.232540000000     0.997450000000     0.269550000000     0          
C577     C      0.382420000000     0.498700000000     0.617390000000     0          
C578     C      0.343640000000     0.494510000000     0.654850000000     0          
C579     C      0.268380000000     0.491390000000     0.726810000000     0          
C580     C      0.382410000000     0.000370000000     0.117500000000     0          
C581     C      0.343750000000     0.002110000000     0.155390000000     0          
C582     C      0.267450000000     0.000030000000     0.227320000000     0          
C583     C      0.881500000000     0.501880000000     0.119900000000     0          
C584     C      0.843360000000     0.507170000000     0.159020000000     0          
C585     C      0.769350000000     0.507460000000     0.233160000000     0          
C586     C      0.881540000000     0.001270000000     0.619440000000     0          
C587     C      0.842960000000     0.006890000000     0.656830000000     0          
C588     C      0.764640000000     0.013460000000     0.725370000000     0          
C589     C      0.382310000000     0.498370000000     0.382460000000     0          
C590     C      0.343410000000     0.493280000000     0.344580000000     0          
C591     C      0.268890000000     0.488770000000     0.271080000000     0          
C592     C      0.382450000000     0.999480000000     0.882410000000     0          
C593     C      0.344240000000     0.995900000000     0.843990000000     0          
C594     C      0.270180000000     0.992610000000     0.770310000000     0          
C595     C      0.879180000000     0.500470000000     0.879610000000     0          
C596     C      0.839880000000     0.499330000000     0.841520000000     0          
C597     C      0.768840000000     0.488860000000     0.765770000000     0          
C598     C      0.882430000000     0.000830000000     0.382460000000     0          
C599     C      0.843990000000     0.004880000000     0.344330000000     0          
C600     C      0.769160000000     0.010220000000     0.270720000000     0          
C601     C      0.617480000000     0.617680000000     0.500310000000     0          
C602     C      0.654880000000     0.656990000000     0.500610000000     0          
C603     C      0.722400000000     0.736360000000     0.497730000000     0          
C604     C      0.617910000000     0.117630000000     0.999750000000     0          
C605     C      0.658190000000     0.154890000000     0.997750000000     0          
C606     C      0.740830000000     0.220550000000     0.992750000000     0          
C607     C      0.117460000000     0.617450000000     0.000770000000     0          
C608     C      0.155590000000     0.655430000000     0.004500000000     0          
C609     C      0.230250000000     0.728330000000     0.009460000000     0          
C610     C      0.117580000000     0.117580000000     0.499290000000     0          
C611     C      0.156020000000     0.155860000000     0.495900000000     0          
C612     C      0.231070000000     0.228750000000     0.493360000000     0          
C613     C      0.382470000000     0.617580000000     0.499320000000     0          
C614     C      0.344270000000     0.656000000000     0.495470000000     0          
C615     C      0.269920000000     0.729650000000     0.491660000000     0          
C616     C      0.382500000000     0.117630000000     0.998910000000     0          
C617     C      0.344760000000     0.156360000000     0.994710000000     0          
C618     C      0.273310000000     0.233290000000     0.989610000000     0          
C619     C      0.881980000000     0.617670000000     0.001460000000     0          
C620     C      0.842290000000     0.655950000000     0.003340000000     0          
C621     C      0.766570000000     0.729410000000     0.997800000000     0          
C622     C      0.880980000000     0.119740000000     0.500660000000     0          
C623     C      0.841370000000     0.158320000000     0.500470000000     0          
C624     C      0.770790000000     0.235030000000     0.488480000000     0          
C625     C      0.617640000000     0.382490000000     0.499890000000     0          
C626     C      0.656620000000     0.344730000000     0.499410000000     0          
C627     C      0.734810000000     0.275840000000     0.494980000000     0          
C628     C      0.617580000000     0.882550000000     0.000170000000     0          
C629     C      0.656280000000     0.844790000000     0.001820000000     0          
C630     C      0.731080000000     0.771260000000     0.999910000000     0          
C631     C      0.117700000000     0.381980000000     0.997620000000     0          
C632     C      0.156210000000     0.342500000000     0.992440000000     0          
C633     C      0.232270000000     0.269820000000     0.989800000000     0          
C634     C      0.117850000000     0.882290000000     0.497740000000     0          
C635     C      0.157060000000     0.843810000000     0.492560000000     0          
C636     C      0.232790000000     0.770670000000     0.492670000000     0          
C637     C      0.382070000000     0.382300000000     0.498120000000     0          
C638     C      0.342610000000     0.343920000000     0.494080000000     0          
C639     C      0.267640000000     0.270060000000     0.494450000000     0          
C640     C      0.380060000000     0.881500000000     0.002000000000     0          
C641     C      0.340920000000     0.843290000000     0.007400000000     0          
C642     C      0.266180000000     0.769300000000     0.008320000000     0          
C643     C      0.880880000000     0.380180000000     0.000260000000     0          
C644     C      0.841160000000     0.341270000000     0.000280000000     0          
C645     C      0.775230000000     0.261980000000     0.980670000000     0          
C646     C      0.880350000000     0.880860000000     0.499370000000     0          
C647     C      0.841920000000     0.841100000000     0.496600000000     0          
C648     C      0.762940000000     0.772280000000     0.490310000000     0          
O649     O      0.448390000000     0.448390000000     0.551610000000     0          
O650     O      0.461520000000     0.461520000000     0.538480000000     0          
O651     O      0.448390000000     0.948390000000     0.051610000000     0          
O652     O      0.461520000000     0.961520000000     0.038480000000     0          
O653     O      0.948390000000     0.448390000000     0.051610000000     0          
O654     O      0.961520000000     0.461520000000     0.038480000000     0          
O655     O      0.948390000000     0.948390000000     0.551610000000     0          
O656     O      0.961520000000     0.961520000000     0.538480000000     0          
O657     O      0.551610000000     0.551610000000     0.551610000000     0          
O658     O      0.538480000000     0.538480000000     0.538480000000     0          
O659     O      0.551610000000     0.051610000000     0.051610000000     0          
O660     O      0.538480000000     0.038480000000     0.038480000000     0          
O661     O      0.051610000000     0.551610000000     0.051610000000     0          
O662     O      0.038480000000     0.538480000000     0.038480000000     0          
O663     O      0.051610000000     0.051610000000     0.551610000000     0          
O664     O      0.038480000000     0.038480000000     0.538480000000     0          
O665     O      0.551610000000     0.448390000000     0.448390000000     0          
O666     O      0.538480000000     0.461520000000     0.461520000000     0          
O667     O      0.551610000000     0.948390000000     0.948390000000     0          
O668     O      0.538480000000     0.961520000000     0.961520000000     0          
O669     O      0.051610000000     0.448390000000     0.948390000000     0          
O670     O      0.038480000000     0.461520000000     0.961520000000     0          
O671     O      0.051610000000     0.948390000000     0.448390000000     0          
O672     O      0.038480000000     0.961520000000     0.461520000000     0          
O673     O      0.448390000000     0.551610000000     0.448390000000     0          
O674     O      0.461520000000     0.538480000000     0.461520000000     0          
O675     O      0.448390000000     0.051610000000     0.948390000000     0          
O676     O      0.461520000000     0.038480000000     0.961520000000     0          
O677     O      0.948390000000     0.551610000000     0.948390000000     0          
O678     O      0.961520000000     0.538480000000     0.961520000000     0          
O679     O      0.948390000000     0.051610000000     0.448390000000     0          
O680     O      0.961520000000     0.038480000000     0.461520000000     0          
O681     O      0.448390000000     0.448390000000     0.448390000000     0          
O682     O      0.461520000000     0.461520000000     0.461520000000     0          
O683     O      0.448390000000     0.948390000000     0.948390000000     0          
O684     O      0.461520000000     0.961520000000     0.961520000000     0          
O685     O      0.948390000000     0.448390000000     0.948390000000     0          
O686     O      0.961520000000     0.461520000000     0.961520000000     0          
O687     O      0.948390000000     0.948390000000     0.448390000000     0          
O688     O      0.961520000000     0.961520000000     0.461520000000     0          
O689     O      0.551610000000     0.551610000000     0.448390000000     0          
O690     O      0.538480000000     0.538480000000     0.461520000000     0          
O691     O      0.551610000000     0.051610000000     0.948390000000     0          
O692     O      0.538480000000     0.038480000000     0.961520000000     0          
O693     O      0.051610000000     0.551610000000     0.948390000000     0          
O694     O      0.038480000000     0.538480000000     0.961520000000     0          
O695     O      0.051610000000     0.051610000000     0.448390000000     0          
O696     O      0.038480000000     0.038480000000     0.461520000000     0          
O697     O      0.448390000000     0.551610000000     0.551610000000     0          
O698     O      0.461520000000     0.538480000000     0.538480000000     0          
O699     O      0.448390000000     0.051610000000     0.051610000000     0          
O700     O      0.461520000000     0.038480000000     0.038480000000     0          
O701     O      0.948390000000     0.551610000000     0.051610000000     0          
O702     O      0.961520000000     0.538480000000     0.038480000000     0          
O703     O      0.948390000000     0.051610000000     0.551610000000     0          
O704     O      0.961520000000     0.038480000000     0.538480000000     0          
O705     O      0.551610000000     0.448390000000     0.551610000000     0          
O706     O      0.538480000000     0.461520000000     0.538480000000     0          
O707     O      0.551610000000     0.948390000000     0.051610000000     0          
O708     O      0.538480000000     0.961520000000     0.038480000000     0          
O709     O      0.051610000000     0.448390000000     0.051610000000     0          
O710     O      0.038480000000     0.461520000000     0.038480000000     0          
O711     O      0.051610000000     0.948390000000     0.551610000000     0          
O712     O      0.038480000000     0.961520000000     0.538480000000     0          
H713     H      0.173010000000     0.461720000000     0.275770000000     0          
H714     H      0.109230000000     0.469080000000     0.211850000000     0          
H715     H      0.252630000000     0.564570000000     0.293070000000     0          
H716     H      0.317030000000     0.568060000000     0.357300000000     0          
H717     H      0.191060000000     0.562110000000     0.078600000000     0          
H718     H      0.324330000000     0.519410000000     0.198490000000     0          
H719     H      0.343600000000     0.563050000000     0.120980000000     0          
H720     H      0.276540000000     0.585310000000     0.061980000000     0          
H721     H      0.387530000000     0.403140000000     0.362410000000     0          
H722     H      0.261970000000     0.397650000000     0.226350000000     0          
H723     H      0.307400000000     0.322260000000     0.251240000000     0          
H724     H      0.368750000000     0.324830000000     0.319870000000     0          
H725     H      0.596730000000     0.582970000000     0.666110000000     0          
H726     H      0.743240000000     0.583020000000     0.777960000000     0          
H727     H      0.683440000000     0.651190000000     0.780380000000     0          
H728     H      0.609440000000     0.650180000000     0.726270000000     0          
H729     H      0.793280000000     0.536990000000     0.928060000000     0          
H730     H      0.674050000000     0.478120000000     0.800970000000     0          
H731     H      0.645750000000     0.501510000000     0.884280000000     0          
H732     H      0.705790000000     0.532790000000     0.946750000000     0          
H733     H      0.752730000000     0.426240000000     0.689970000000     0          
H734     H      0.687130000000     0.431080000000     0.627150000000     0          
H735     H      0.831870000000     0.482960000000     0.716190000000     0          
H736     H      0.893670000000     0.486720000000     0.782230000000     0          
H737     H      0.260420000000     0.570150000000     0.712130000000     0          
H738     H      0.322940000000     0.571370000000     0.645650000000     0          
H739     H      0.385640000000     0.403500000000     0.636160000000     0          
H740     H      0.246560000000     0.396450000000     0.757690000000     0          
H741     H      0.290460000000     0.320690000000     0.733320000000     0          
H742     H      0.359480000000     0.324040000000     0.672790000000     0          
H743     H      0.192560000000     0.439890000000     0.926320000000     0          
H744     H      0.325880000000     0.472660000000     0.803630000000     0          
H745     H      0.345230000000     0.436630000000     0.884760000000     0          
H746     H      0.278110000000     0.418910000000     0.945330000000     0          
H747     H      0.173860000000     0.520440000000     0.720470000000     0          
H748     H      0.111190000000     0.523150000000     0.785590000000     0          
H749     H      0.737460000000     0.429160000000     0.284490000000     0          
H750     H      0.673130000000     0.426200000000     0.348930000000     0          
H751     H      0.724740000000     0.467790000000     0.179250000000     0          
H752     H      0.789390000000     0.465630000000     0.115710000000     0          
H753     H      0.612660000000     0.595240000000     0.362720000000     0          
H754     H      0.739120000000     0.600370000000     0.227940000000     0          
H755     H      0.693910000000     0.675690000000     0.252130000000     0          
H756     H      0.630830000000     0.673090000000     0.319290000000     0          
H757     H      0.921760000000     0.569610000000     0.184090000000     0          
H758     H      0.800330000000     0.548520000000     0.321020000000     0          
H759     H      0.878030000000     0.593890000000     0.334470000000     0          
H760     H      0.938130000000     0.605110000000     0.265560000000     0          
H761     H      0.477590000000     0.327800000000     0.220700000000     0          
H762     H      0.478430000000     0.391160000000     0.285240000000     0          
H763     H      0.551840000000     0.302000000000     0.428470000000     0          
H764     H      0.501540000000     0.172850000000     0.307470000000     0          
H765     H      0.532200000000     0.149900000000     0.390020000000     0          
H766     H      0.558250000000     0.214970000000     0.449710000000     0          
H767     H      0.589860000000     0.104380000000     0.152390000000     0          
H768     H      0.592990000000     0.245210000000     0.271630000000     0          
H769     H      0.666430000000     0.193160000000     0.259640000000     0          
H770     H      0.664650000000     0.122790000000     0.200690000000     0          
H771     H      0.425750000000     0.244870000000     0.203790000000     0          
H772     H      0.427500000000     0.181320000000     0.138570000000     0          
H773     H      0.407170000000     0.612350000000     0.648070000000     0          
H774     H      0.411950000000     0.751820000000     0.769200000000     0          
H775     H      0.335160000000     0.705340000000     0.755450000000     0          
H776     H      0.332240000000     0.637020000000     0.695160000000     0          
H777     H      0.577430000000     0.745480000000     0.698960000000     0          
H778     H      0.574170000000     0.678790000000     0.636910000000     0          
H779     H      0.512180000000     0.833500000000     0.717290000000     0          
H780     H      0.509660000000     0.893950000000     0.784030000000     0          
H781     H      0.474580000000     0.790170000000     0.933880000000     0          
H782     H      0.513100000000     0.673570000000     0.797330000000     0          
H783     H      0.498840000000     0.643770000000     0.881810000000     0          
H784     H      0.479140000000     0.702920000000     0.949320000000     0          
H785     H      0.581860000000     0.407240000000     0.666480000000     0          
H786     H      0.586590000000     0.264780000000     0.783050000000     0          
H787     H      0.651670000000     0.328020000000     0.784700000000     0          
H788     H      0.647960000000     0.400240000000     0.728150000000     0          
H789     H      0.432030000000     0.244930000000     0.692120000000     0          
H790     H      0.435620000000     0.308490000000     0.627180000000     0          
H791     H      0.488060000000     0.169190000000     0.718440000000     0          
H792     H      0.489070000000     0.106290000000     0.783370000000     0          
H793     H      0.541700000000     0.203910000000     0.930780000000     0          
H794     H      0.482450000000     0.325370000000     0.805990000000     0          
H795     H      0.505130000000     0.352070000000     0.889940000000     0          
H796     H      0.536950000000     0.291090000000     0.951170000000     0          
H797     H      0.572130000000     0.778770000000     0.232270000000     0          
H798     H      0.574880000000     0.843960000000     0.168820000000     0          
H799     H      0.404460000000     0.863590000000     0.114460000000     0          
H800     H      0.396040000000     0.746750000000     0.257320000000     0          
H801     H      0.320340000000     0.771640000000     0.213350000000     0          
H802     H      0.324690000000     0.828540000000     0.141130000000     0          
H803     H      0.429970000000     0.578280000000     0.317040000000     0          
H804     H      0.461390000000     0.694130000000     0.177410000000     0          
H805     H      0.416360000000     0.616310000000     0.163800000000     0          
H806     H      0.399650000000     0.559160000000     0.234150000000     0          
H807     H      0.529120000000     0.775900000000     0.322980000000     0          
H808     H      0.531850000000     0.711520000000     0.386640000000     0          
H809     H      0.687320000000     0.755450000000     0.427950000000     0          
H810     H      0.626860000000     0.687480000000     0.431350000000     0          
H811     H      0.665400000000     0.598400000000     0.583850000000     0          
H812     H      0.781650000000     0.741760000000     0.580510000000     0          
H813     H      0.783700000000     0.682150000000     0.649060000000     0          
H814     H      0.726950000000     0.610150000000     0.649930000000     0          
H815     H      0.935070000000     0.787510000000     0.496620000000     0          
H816     H      0.791080000000     0.679030000000     0.463190000000     0          
H817     H      0.875830000000     0.647380000000     0.459740000000     0          
H818     H      0.946950000000     0.702510000000     0.477910000000     0          
H819     H      0.715320000000     0.835320000000     0.504030000000     0          
H820     H      0.782510000000     0.895440000000     0.506250000000     0          
H821     H      0.179280000000     0.725890000000     0.532890000000     0          
H822     H      0.115340000000     0.790040000000     0.535940000000     0          
H823     H      0.179120000000     0.919290000000     0.426150000000     0          
H824     H      0.332120000000     0.882280000000     0.407320000000     0          
H825     H      0.260640000000     0.937880000000     0.391400000000     0          
H826     H      0.381970000000     0.631940000000     0.403970000000     0          
H827     H      0.282170000000     0.722750000000     0.319620000000     0          
H828     H      0.352880000000     0.663960000000     0.323920000000     0          
H829     H      0.271020000000     0.724560000000     0.572140000000     0          
H830     H      0.334250000000     0.659210000000     0.575180000000     0          
H831     H      0.125650000000     0.126140000000     0.403320000000     0          
H832     H      0.267520000000     0.244470000000     0.399090000000     0          
H833     H      0.234200000000     0.209390000000     0.322040000000     0          
H834     H      0.163040000000     0.150940000000     0.324080000000     0          
H835     H      0.224020000000     0.228760000000     0.573590000000     0          
H836     H      0.160470000000     0.163700000000     0.575890000000     0          
H837     H      0.319840000000     0.227420000000     0.538360000000     0          
H838     H      0.383620000000     0.291890000000     0.540230000000     0          
H839     H      0.319450000000     0.420040000000     0.428620000000     0          
H840     H      0.180520000000     0.301450000000     0.451640000000     0          
H841     H      0.169900000000     0.376240000000     0.401120000000     0          
H842     H      0.239870000000     0.434810000000     0.388710000000     0          
H843     H      0.748230000000     0.305200000000     0.421360000000     0          
H844     H      0.681460000000     0.367130000000     0.426060000000     0          
H845     H      0.834020000000     0.284570000000     0.489680000000     0          
H846     H      0.895320000000     0.218420000000     0.496660000000     0          
H847     H      0.603710000000     0.340030000000     0.586680000000     0          
H848     H      0.748340000000     0.225380000000     0.582780000000     0          
H849     H      0.694250000000     0.228960000000     0.655580000000     0          
H850     H      0.621360000000     0.284530000000     0.656830000000     0          
H851     H      0.791850000000     0.071060000000     0.532940000000     0          
H852     H      0.676500000000     0.201190000000     0.473200000000     0          
H853     H      0.646750000000     0.117190000000     0.491350000000     0          
H854     H      0.704740000000     0.053020000000     0.522880000000     0          
H855     H      0.192150000000     0.058370000000     0.425410000000     0          
H856     H      0.324210000000     0.026400000000     0.301640000000     0          
H857     H      0.342990000000     0.067300000000     0.380470000000     0          
H858     H      0.276280000000     0.083550000000     0.441720000000     0          
H859     H      0.374820000000     0.095890000000     0.131880000000     0          
H860     H      0.233990000000     0.093420000000     0.251480000000     0          
H861     H      0.269210000000     0.172240000000     0.223250000000     0          
H862     H      0.339540000000     0.173700000000     0.164080000000     0          
H863     H      0.173080000000     0.960540000000     0.225190000000     0          
H864     H      0.110400000000     0.964780000000     0.290490000000     0          
H865     H      0.270560000000     0.919730000000     0.221390000000     0          
H866     H      0.335370000000     0.919820000000     0.157140000000     0          
H867     H      0.068150000000     0.185060000000     0.576600000000     0          
H868     H      0.037610000000     0.321740000000     0.696130000000     0          
H869     H      0.078990000000     0.338000000000     0.616690000000     0          
H870     H      0.095750000000     0.269100000000     0.557850000000     0          
H871     H      0.096800000000     0.379270000000     0.868150000000     0          
H872     H      0.103820000000     0.235150000000     0.752680000000     0          
H873     H      0.180380000000     0.272560000000     0.784760000000     0          
H874     H      0.176940000000     0.345290000000     0.841270000000     0          
H875     H      0.979580000000     0.172460000000     0.778530000000     0          
H876     H      0.978270000000     0.109040000000     0.714190000000     0          
H877     H      0.928130000000     0.267960000000     0.772890000000     0          
H878     H      0.922930000000     0.332390000000     0.837430000000     0          
H879     H      0.310850000000     0.925450000000     0.063060000000     0          
H880     H      0.174990000000     0.804400000000     0.036460000000     0          
H881     H      0.158450000000     0.885040000000     0.075000000000     0          
H882     H      0.227080000000     0.944790000000     0.089230000000     0          
H883     H      0.117360000000     0.631470000000     0.096020000000     0          
H884     H      0.256190000000     0.753090000000     0.104930000000     0          
H885     H      0.215050000000     0.724180000000     0.180710000000     0          
H886     H      0.145510000000     0.664030000000     0.176220000000     0          
H887     H      0.325010000000     0.721810000000     0.974620000000     0          
H888     H      0.387710000000     0.787240000000     0.972500000000     0          
H889     H      0.230890000000     0.720730000000     0.926840000000     0          
H890     H      0.165970000000     0.656640000000     0.924570000000     0          
H891     H      0.947040000000     0.196630000000     0.428350000000     0          
H892     H      0.980650000000     0.325180000000     0.301480000000     0          
H893     H      0.950720000000     0.348100000000     0.384080000000     0          
H894     H      0.933750000000     0.283470000000     0.447000000000     0          
H895     H      0.903160000000     0.375070000000     0.130650000000     0          
H896     H      0.902490000000     0.236300000000     0.252900000000     0          
H897     H      0.824170000000     0.272440000000     0.223480000000     0          
H898     H      0.824320000000     0.341730000000     0.162570000000     0          
H899     H      0.022470000000     0.170980000000     0.220470000000     0          
H900     H      0.022460000000     0.108520000000     0.285890000000     0          
H901     H      0.076800000000     0.270890000000     0.221900000000     0          
H902     H      0.078260000000     0.336800000000     0.159040000000     0          
H903     H      0.786460000000     0.431050000000     0.010220000000     0          
H904     H      0.682240000000     0.290280000000     0.955110000000     0          
H905     H      0.648700000000     0.374780000000     0.959440000000     0          
H906     H      0.701580000000     0.444400000000     0.987740000000     0          
H907     H      0.597390000000     0.175170000000     0.077320000000     0          
H908     H      0.748850000000     0.280690000000     0.073920000000     0          
H909     H      0.687030000000     0.290470000000     0.139770000000     0          
H910     H      0.610750000000     0.239280000000     0.140410000000     0          
H911     H      0.839720000000     0.214040000000     0.988030000000     0          
H912     H      0.897490000000     0.282140000000     0.004700000000     0          
H913     H      0.761010000000     0.175930000000     0.925940000000     0          
H914     H      0.689610000000     0.119590000000     0.932210000000     0          
H915     H      0.635540000000     0.879690000000     0.094950000000     0          
H916     H      0.768340000000     0.751130000000     0.092880000000     0          
H917     H      0.741360000000     0.788730000000     0.171210000000     0          
H918     H      0.675570000000     0.853170000000     0.172210000000     0          
H919     H      0.811560000000     0.577410000000     0.063980000000     0          
H920     H      0.675860000000     0.696710000000     0.028900000000     0          
H921     H      0.658880000000     0.617800000000     0.070800000000     0          
H922     H      0.727030000000     0.558600000000     0.088710000000     0          
H923     H      0.723030000000     0.772040000000     0.919720000000     0          
H924     H      0.658660000000     0.836940000000     0.919330000000     0          
H925     H      0.825430000000     0.773950000000     0.959970000000     0          
H926     H      0.888660000000     0.709030000000     0.963720000000     0          
H927     H      0.095170000000     0.885460000000     0.361530000000     0          
H928     H      0.099730000000     0.760580000000     0.225220000000     0          
H929     H      0.175720000000     0.803140000000     0.251790000000     0          
H930     H      0.173460000000     0.865620000000     0.319510000000     0          
H931     H      0.068140000000     0.577690000000     0.183960000000     0          
H932     H      0.049490000000     0.702420000000     0.317740000000     0          
H933     H      0.093720000000     0.624530000000     0.332690000000     0          
H934     H      0.102560000000     0.562190000000     0.265680000000     0          
H935     H      0.927810000000     0.764850000000     0.279680000000     0          
H936     H      0.925310000000     0.827960000000     0.345290000000     0          
H937     H      0.963880000000     0.773900000000     0.176870000000     0          
H938     H      0.962000000000     0.708580000000     0.114170000000     0          
H939     H      0.387940000000     0.138960000000     0.902550000000     0          
H940     H      0.262190000000     0.274540000000     0.896790000000     0          
H941     H      0.307200000000     0.249910000000     0.821400000000     0          
H942     H      0.370210000000     0.182580000000     0.824180000000     0          
H943     H      0.073670000000     0.311570000000     0.937140000000     0          
H944     H      0.203200000000     0.181620000000     0.948520000000     0          
H945     H      0.124370000000     0.165320000000     0.906650000000     0          
H946     H      0.060140000000     0.230870000000     0.900800000000     0          
H947     H      0.264270000000     0.219580000000     0.068400000000     0          
H948     H      0.326570000000     0.153610000000     0.072610000000     0          
H949     H      0.276620000000     0.324660000000     0.028270000000     0          
H950     H      0.211120000000     0.387080000000     0.031510000000     0          
H951     H      0.860610000000     0.094170000000     0.390510000000     0          
H952     H      0.724450000000     0.101650000000     0.266120000000     0          
H953     H      0.747880000000     0.175670000000     0.313590000000     0          
H954     H      0.815990000000     0.171810000000     0.375500000000     0          
H955     H      0.671590000000     0.078580000000     0.084850000000     0          
H956     H      0.812310000000     0.066310000000     0.202890000000     0          
H957     H      0.817360000000     0.121090000000     0.130560000000     0          
H958     H      0.746540000000     0.127700000000     0.072240000000     0          
H959     H      0.786880000000     0.929880000000     0.260120000000     0          
H960     H      0.851610000000     0.927320000000     0.324370000000     0          
H961     H      0.684190000000     0.954320000000     0.268430000000     0          
H962     H      0.620770000000     0.951740000000     0.203190000000     0          
H963     H      0.694410000000     0.941480000000     0.920630000000     0          
H964     H      0.822090000000     0.977510000000     0.792750000000     0          
H965     H      0.844140000000     0.934700000000     0.869690000000     0          
H966     H      0.780000000000     0.916060000000     0.933000000000     0          
H967     H      0.901580000000     0.090350000000     0.654900000000     0          
H968     H      0.763670000000     0.100570000000     0.777480000000     0          
H969     H      0.822380000000     0.169460000000     0.768040000000     0          
H970     H      0.890230000000     0.165000000000     0.706270000000     0          
H971     H      0.672390000000     0.047330000000     0.723970000000     0          
H972     H      0.609770000000     0.041510000000     0.789580000000     0          
H973     H      0.741500000000     0.940850000000     0.699440000000     0          
H974     H      0.808290000000     0.933650000000     0.637840000000     0          
H975     H      0.995960000000     0.713260000000     0.936790000000     0          
H976     H      0.040630000000     0.820170000000     0.794090000000     0          
H977     H      0.043680000000     0.851720000000     0.879140000000     0          
H978     H      0.018990000000     0.797960000000     0.949630000000     0          
H979     H      0.916650000000     0.904500000000     0.668900000000     0          
H980     H      0.916650000000     0.756630000000     0.779930000000     0          
H981     H      0.846500000000     0.815310000000     0.780710000000     0          
H982     H      0.847560000000     0.889830000000     0.726650000000     0          
H983     H      0.994140000000     0.666180000000     0.717410000000     0          
H984     H      0.989830000000     0.606090000000     0.784320000000     0          
H985     H      0.073370000000     0.746090000000     0.689680000000     0          
H986     H      0.067820000000     0.813430000000     0.628960000000     0          
H987     H      0.366960000000     0.904290000000     0.882560000000     0          
H988     H      0.241450000000     0.897370000000     0.747060000000     0          
H989     H      0.269870000000     0.821180000000     0.787790000000     0          
H990     H      0.332110000000     0.824630000000     0.855640000000     0          
H991     H      0.073670000000     0.936550000000     0.691140000000     0          
H992     H      0.192630000000     0.973690000000     0.826850000000     0          
H993     H      0.111660000000     0.936070000000     0.845210000000     0          
H994     H      0.053100000000     0.915860000000     0.776920000000     0          
H995     H      0.280030000000     0.072420000000     0.766430000000     0          
H996     H      0.345440000000     0.075200000000     0.829830000000     0          
H997     H      0.278690000000     0.018180000000     0.675260000000     0          
H998     H      0.215840000000     0.019580000000     0.610330000000     0          
H999     H      0.842600000000     0.259010000000     0.938460000000     0          
H1000    H      0.848270000000     0.278450000000     0.049470000000     0          
H1001    H      0.321180000000     0.805990000000     0.455720000000     0          
H1002    H      0.241230000000     0.751300000000     0.395680000000     0          


