data_QAJPEZ

_audit_creation_method RASPA-1.0
_audit_creation_date 2020-11-2
_audit_author_name 'Rocio Bueno-Perez'

_cell_length_a    26.8167
_cell_length_b    26.8167
_cell_length_c    26.8167
_cell_angle_alpha 90
_cell_angle_beta  90
_cell_angle_gamma 90
_cell_volume      19284.8

_symmetry_cell_setting          triclinic
_symmetry_space_group_name_Hall 'P 1'
_symmetry_space_group_name_H-M  'P 1'
_symmetry_Int_Tables_number     1

_symmetry_equiv_pos_as_xyz 'x,y,z'

loop_
_atom_site_label
_atom_site_type_symbol
_atom_site_fract_x
_atom_site_fract_y
_atom_site_fract_z
_atom_site_charge
C1       C      0.496790000000     0.680320000000     0.742730000000     0          
C2       C      0.495590000000     0.644770000000     0.705310000000     0          
C3       C      0.446900000000     0.210230000000     0.210220000000     0          
C4       C      0.449000000000     0.171200000000     0.174550000000     0          
C5       C      0.358400000000     0.163830000000     0.177660000000     0          
C6       C      0.356110000000     0.203250000000     0.211350000000     0          
C7       C      0.404260000000     0.148280000000     0.158760000000     0          
C8       C      0.399760000000     0.226860000000     0.226980000000     0          
C9       C      0.957810000000     0.694570000000     0.226480000000     0          
C10      C      0.959850000000     0.657900000000     0.189920000000     0          
C11      C      0.959840000000     0.186370000000     0.735310000000     0          
C12      C      0.958610000000     0.151570000000     0.695830000000     0          
C13      C      0.890380000000     0.108470000000     0.737860000000     0          
C14      C      0.894410000000     0.140490000000     0.778410000000     0          
C15      C      0.921890000000     0.113880000000     0.696800000000     0          
C16      C      0.929080000000     0.179140000000     0.777360000000     0          
C17      C      0.515770000000     0.813430000000     0.238640000000     0          
C18      C      0.516240000000     0.850310000000     0.202290000000     0          
C19      C      0.001120000000     0.320450000000     0.247050000000     0          
C20      C      0.010300000000     0.357410000000     0.210340000000     0          
C21      C      0.024840000000     0.417470000000     0.277840000000     0          
C22      C      0.008790000000     0.382810000000     0.312770000000     0          
C23      C      0.026320000000     0.404980000000     0.227380000000     0          
C24      C      0.997420000000     0.334500000000     0.297730000000     0          
C25      C      0.039830000000     0.810460000000     0.731040000000     0          
C26      C      0.036760000000     0.846940000000     0.694710000000     0          
C27      C      0.539350000000     0.186420000000     0.767450000000     0          
C28      C      0.537670000000     0.152630000000     0.806690000000     0          
C29      C      0.700250000000     0.450490000000     0.720850000000     0          
C30      C      0.664520000000     0.451140000000     0.681960000000     0          
C31      C      0.650800000000     0.361940000000     0.693720000000     0          
C32      C      0.685850000000     0.361380000000     0.732030000000     0          
C33      C      0.639950000000     0.406360000000     0.668900000000     0          
C34      C      0.710270000000     0.405200000000     0.745840000000     0          
C35      C      0.709450000000     0.956760000000     0.210940000000     0          
C36      C      0.671130000000     0.957630000000     0.176530000000     0          
C37      C      0.234040000000     0.467110000000     0.186540000000     0          
C38      C      0.195430000000     0.467590000000     0.152100000000     0          
C39      C      0.253950000000     0.514010000000     0.678770000000     0          
C40      C      0.292850000000     0.521770000000     0.643820000000     0          
C41      C      0.231850000000     0.556790000000     0.585710000000     0          
C42      C      0.193290000000     0.543270000000     0.617560000000     0          
C43      C      0.281110000000     0.547100000000     0.598970000000     0          
C44      C      0.204070000000     0.522670000000     0.664040000000     0          
C45      C      0.257170000000     0.016450000000     0.184250000000     0          
C46      C      0.295280000000     0.023610000000     0.148300000000     0          
C47      C      0.234760000000     0.065500000000     0.094500000000     0          
C48      C      0.196420000000     0.051920000000     0.126660000000     0          
C49      C      0.283800000000     0.052060000000     0.105310000000     0          
C50      C      0.207410000000     0.028200000000     0.171560000000     0          
C51      C      0.790770000000     0.558670000000     0.210760000000     0          
C52      C      0.826540000000     0.554590000000     0.172100000000     0          
C53      C      0.828830000000     0.645240000000     0.165320000000     0          
C54      C      0.796270000000     0.649290000000     0.205540000000     0          
C55      C      0.844450000000     0.598390000000     0.149010000000     0          
C56      C      0.777610000000     0.606510000000     0.228480000000     0          
C57      C      0.772860000000     0.046600000000     0.692110000000     0          
C58      C      0.810930000000     0.042890000000     0.657330000000     0          
C59      C      0.260380000000     0.985170000000     0.812310000000     0          
C60      C      0.296470000000     0.983830000000     0.849280000000     0          
C61      C      0.726600000000     0.194130000000     0.948920000000     0          
C62      C      0.687780000000     0.158100000000     0.950850000000     0          
C63      C      0.710490000000     0.130230000000     0.867250000000     0          
C64      C      0.749360000000     0.164550000000     0.865920000000     0          
C65      C      0.680110000000     0.126640000000     0.909290000000     0          
C66      C      0.757570000000     0.196290000000     0.906330000000     0          
C67      C      0.199550000000     0.731530000000     0.979320000000     0          
C68      C      0.161130000000     0.695730000000     0.972450000000     0          
C69      C      0.134490000000     0.739540000000     0.897500000000     0          
C70      C      0.171040000000     0.775470000000     0.905010000000     0          
C71      C      0.128930000000     0.700270000000     0.931030000000     0          
C72      C      0.202800000000     0.772200000000     0.945930000000     0          
C73      C      0.311590000000     0.736040000000     0.536540000000     0          
C74      C      0.348290000000     0.697830000000     0.537810000000     0          
C75      C      0.393500000000     0.744240000000     0.601830000000     0          
C76      C      0.358910000000     0.782740000000     0.598700000000     0          
C77      C      0.387920000000     0.701820000000     0.572390000000     0          
C78      C      0.317960000000     0.778700000000     0.566880000000     0          
C79      C      0.301050000000     0.223930000000     0.038100000000     0          
C80      C      0.338250000000     0.187940000000     0.037980000000     0          
C81      C      0.825220000000     0.747360000000     0.018470000000     0          
C82      C      0.857800000000     0.708020000000     0.010360000000     0          
C83      C      0.679440000000     0.257360000000     0.516060000000     0          
C84      C      0.644840000000     0.295790000000     0.515630000000     0          
C85      C      0.293990000000     0.283280000000     0.459070000000     0          
C86      C      0.328120000000     0.322190000000     0.458400000000     0          
C87      C      0.815510000000     0.752820000000     0.488270000000     0          
C88      C      0.852780000000     0.789780000000     0.482710000000     0          
C89      C      0.909620000000     0.725220000000     0.451910000000     0          
C90      C      0.874450000000     0.688650000000     0.462080000000     0          
C91      C      0.898860000000     0.775210000000     0.461410000000     0          
C92      C      0.827570000000     0.702160000000     0.479700000000     0          
C93      C      0.315130000000     0.035210000000     0.759680000000     0          
C94      C      0.350410000000     0.037080000000     0.799010000000     0          
C95      C      0.400910000000     0.094610000000     0.749600000000     0          
C96      C      0.368840000000     0.088740000000     0.709320000000     0          
C97      C      0.391870000000     0.069240000000     0.794070000000     0          
C98      C      0.326240000000     0.059340000000     0.714130000000     0          
C99      C      0.715040000000     0.539440000000     0.707810000000     0          
C100     C      0.679940000000     0.540110000000     0.669880000000     0          
C101     C      0.719770000000     0.048730000000     0.201670000000     0          
C102     C      0.679850000000     0.048340000000     0.167080000000     0          
C103     C      0.687230000000     0.138730000000     0.158830000000     0          
C104     C      0.727310000000     0.138790000000     0.191750000000     0          
C105     C      0.663980000000     0.093980000000     0.145940000000     0          
C106     C      0.743870000000     0.094260000000     0.212750000000     0          
C107     C      0.200050000000     0.541660000000     0.225970000000     0          
C108     C      0.159350000000     0.540950000000     0.192170000000     0          
C109     C      0.125160000000     0.614430000000     0.233550000000     0          
C110     C      0.165800000000     0.615980000000     0.265630000000     0          
C111     C      0.122440000000     0.578290000000     0.196210000000     0          
C112     C      0.203390000000     0.580470000000     0.261530000000     0          
C113     C      0.315180000000     0.487000000000     0.740140000000     0          
C114     C      0.352410000000     0.488550000000     0.704160000000     0          
C115     C      0.320020000000     0.978160000000     0.240520000000     0          
C116     C      0.354700000000     0.979890000000     0.202460000000     0          
C117     C      0.785030000000     0.467850000000     0.213650000000     0          
C118     C      0.822480000000     0.463940000000     0.178220000000     0          
C119     C      0.793250000000     0.960820000000     0.722910000000     0          
C120     C      0.833570000000     0.958280000000     0.689730000000     0          
C121     C      0.850760000000     0.873770000000     0.717700000000     0          
C122     C      0.809960000000     0.875790000000     0.749780000000     0          
C123     C      0.862280000000     0.914370000000     0.687150000000     0          
C124     C      0.780980000000     0.918840000000     0.752130000000     0          
C125     C      0.461560000000     0.223710000000     0.796110000000     0          
C126     C      0.460960000000     0.190700000000     0.837450000000     0          
C127     C      0.383940000000     0.229620000000     0.866080000000     0          
C128     C      0.383660000000     0.260800000000     0.824710000000     0          
C129     C      0.421450000000     0.194060000000     0.872040000000     0          
C130     C      0.421830000000     0.257750000000     0.789710000000     0          
C131     C      0.520180000000     0.744030000000     0.682320000000     0          
C132     C      0.524240000000     0.706810000000     0.644900000000     0          
C133     C      0.554030000000     0.770770000000     0.586900000000     0          
C134     C      0.544750000000     0.807620000000     0.622070000000     0          
C135     C      0.544690000000     0.720940000000     0.598220000000     0          
C136     C      0.528270000000     0.794560000000     0.669520000000     0          
C137     C      0.537800000000     0.215590000000     0.208590000000     0          
C138     C      0.539600000000     0.178830000000     0.172200000000     0          
C139     C      0.040900000000     0.722610000000     0.202670000000     0          
C140     C      0.041060000000     0.687890000000     0.162800000000     0          
C141     C      0.125860000000     0.712620000000     0.142100000000     0          
C142     C      0.126710000000     0.745040000000     0.182470000000     0          
C143     C      0.083710000000     0.684100000000     0.132240000000     0          
C144     C      0.084830000000     0.749980000000     0.212740000000     0          
C145     C      0.027250000000     0.232380000000     0.691260000000     0          
C146     C      0.027710000000     0.195400000000     0.655280000000     0          
C147     C      0.472850000000     0.756980000000     0.181950000000     0          
C148     C      0.468600000000     0.796320000000     0.146720000000     0          
C149     C      0.418820000000     0.741450000000     0.093560000000     0          
C150     C      0.428020000000     0.701590000000     0.125410000000     0          
C151     C      0.438560000000     0.788390000000     0.104100000000     0          
C152     C      0.454700000000     0.709100000000     0.169370000000     0          
C153     C      0.996620000000     0.257360000000     0.182030000000     0          
C154     C      0.998030000000     0.294210000000     0.145700000000     0          
C155     C      0.961810000000     0.772460000000     0.701860000000     0          
C156     C      0.960100000000     0.806260000000     0.661710000000     0          
C157     C      0.881730000000     0.769830000000     0.633870000000     0          
C158     C      0.881770000000     0.738110000000     0.674980000000     0          
C159     C      0.920150000000     0.804320000000     0.627540000000     0          
C160     C      0.921040000000     0.739700000000     0.709060000000     0          
C161     C      0.700600000000     0.225190000000     0.030400000000     0          
C162     C      0.662660000000     0.189960000000     0.032210000000     0          
C163     C      0.230750000000     0.684350000000     0.050590000000     0          
C164     C      0.192630000000     0.649600000000     0.044170000000     0          
C165     C      0.742560000000     0.313040000000     0.481950000000     0          
C166     C      0.706440000000     0.351530000000     0.478000000000     0          
C167     C      0.770250000000     0.404610000000     0.439770000000     0          
C168     C      0.806090000000     0.368130000000     0.447260000000     0          
C169     C      0.720940000000     0.396360000000     0.454330000000     0          
C170     C      0.792580000000     0.322650000000     0.468050000000     0          
C171     C      0.264130000000     0.687700000000     0.475790000000     0          
C172     C      0.300790000000     0.651110000000     0.475750000000     0          
C173     C      0.276460000000     0.199240000000     0.953990000000     0          
C174     C      0.312680000000     0.160750000000     0.955020000000     0          
C175     C      0.289610000000     0.137430000000     0.870210000000     0          
C176     C      0.255340000000     0.176240000000     0.868410000000     0          
C177     C      0.318300000000     0.129700000000     0.912820000000     0          
C178     C      0.248860000000     0.207120000000     0.909690000000     0          
C179     C      0.759310000000     0.686160000000     0.039050000000     0          
C180     C      0.791230000000     0.646340000000     0.025460000000     0          
C181     C      0.722200000000     0.589000000000     0.044760000000     0          
C182     C      0.693150000000     0.628440000000     0.061430000000     0          
C183     C      0.770240000000     0.597510000000     0.026550000000     0          
C184     C      0.711240000000     0.676870000000     0.058100000000     0          
C185     C      0.293780000000     0.284450000000     0.550120000000     0          
C186     C      0.328570000000     0.324290000000     0.549370000000     0          
C187     C      0.328760000000     0.325400000000     0.640320000000     0          
C188     C      0.294560000000     0.286310000000     0.641110000000     0          
C189     C      0.345790000000     0.344310000000     0.594970000000     0          
C190     C      0.277230000000     0.265790000000     0.596530000000     0          
C191     C      0.755870000000     0.816990000000     0.512730000000     0          
C192     C      0.793260000000     0.852520000000     0.511950000000     0          
C193     C      0.512290000000     0.315250000000     0.259770000000     0          
C194     C      0.512800000000     0.351790000000     0.296460000000     0          
C195     C      0.553950000000     0.792620000000     0.785560000000     0          
C196     C      0.550840000000     0.832190000000     0.820380000000     0          
C197     C      0.639340000000     0.849390000000     0.808440000000     0          
C198     C      0.642850000000     0.809540000000     0.775360000000     0          
C199     C      0.593910000000     0.860600000000     0.831040000000     0          
C200     C      0.600700000000     0.781170000000     0.764060000000     0          
C201     C      0.037810000000     0.282030000000     0.792210000000     0          
C202     C      0.038430000000     0.317660000000     0.829560000000     0          
C203     C      0.000600000000     0.819240000000     0.253820000000     0          
C204     C      0.011620000000     0.855630000000     0.290610000000     0          
C205     C      0.036170000000     0.912900000000     0.223790000000     0          
C206     C      0.018680000000     0.879450000000     0.188260000000     0          
C207     C      0.032950000000     0.901260000000     0.274400000000     0          
C208     C      0.001210000000     0.832830000000     0.202910000000     0          
C209     C      0.447290000000     0.709580000000     0.288890000000     0          
C210     C      0.449180000000     0.671040000000     0.325130000000     0          
C211     C      0.358510000000     0.664330000000     0.322630000000     0          
C212     C      0.356400000000     0.703280000000     0.288380000000     0          
C213     C      0.404330000000     0.648680000000     0.341480000000     0          
C214     C      0.400170000000     0.726330000000     0.272180000000     0          
C215     C      0.008860000000     0.681650000000     0.754330000000     0          
C216     C      0.995800000000     0.645350000000     0.790090000000     0          
C217     C      0.977270000000     0.587720000000     0.721680000000     0          
C218     C      0.997640000000     0.621050000000     0.687610000000     0          
C219     C      0.975970000000     0.599610000000     0.772330000000     0          
C220     C      0.012980000000     0.667990000000     0.703610000000     0          
C221     C      0.964310000000     0.194060000000     0.271980000000     0          
C222     C      0.964630000000     0.157400000000     0.308470000000     0          
C223     C      0.518640000000     0.312420000000     0.743270000000     0          
C224     C      0.511850000000     0.353440000000     0.710170000000     0          
C225     C      0.526020000000     0.409510000000     0.781430000000     0          
C226     C      0.536190000000     0.369210000000     0.812090000000     0          
C227     C      0.513820000000     0.402130000000     0.731450000000     0          
C228     C      0.532390000000     0.321060000000     0.793470000000     0          
C229     C      0.255640000000     0.487910000000     0.314210000000     0          
C230     C      0.289270000000     0.494810000000     0.354660000000     0          
C231     C      0.218210000000     0.484480000000     0.411770000000     0          
C232     C      0.187170000000     0.472790000000     0.372140000000     0          
C233     C      0.268250000000     0.495910000000     0.403480000000     0          
C234     C      0.205400000000     0.474830000000     0.323720000000     0          
C235     C      0.759590000000     0.517230000000     0.815090000000     0          
C236     C      0.797230000000     0.517470000000     0.850400000000     0          
C237     C      0.758220000000     0.026420000000     0.312600000000     0          
C238     C      0.795850000000     0.029000000000     0.349680000000     0          
C239     C      0.739710000000     0.080330000000     0.400380000000     0          
C240     C      0.702260000000     0.075410000000     0.365090000000     0          
C241     C      0.785850000000     0.057610000000     0.392920000000     0          
C242     C      0.711200000000     0.048590000000     0.321630000000     0          
C243     C      0.739540000000     0.494600000000     0.314300000000     0          
C244     C      0.703580000000     0.492970000000     0.351180000000     0          
C245     C      0.746750000000     0.012210000000     0.816990000000     0          
C246     C      0.712110000000     0.001420000000     0.855390000000     0          
C247     C      0.782450000000     0.993620000000     0.913430000000     0          
C248     C      0.815380000000     0.008710000000     0.876520000000     0          
C249     C      0.731700000000     0.988990000000     0.903060000000     0          
C250     C      0.797970000000     0.017090000000     0.828450000000     0          
C251     C      0.218470000000     0.459010000000     0.795660000000     0          
C252     C      0.182580000000     0.459000000000     0.833030000000     0          
C253     C      0.224680000000     0.958110000000     0.304420000000     0          
C254     C      0.185740000000     0.959100000000     0.338340000000     0          
C255     C      0.205220000000     0.054840000000     0.713750000000     0          
C256     C      0.169010000000     0.052250000000     0.675320000000     0          
C257     C      0.160820000000     0.142850000000     0.677230000000     0          
C258     C      0.195140000000     0.145310000000     0.716080000000     0          
C259     C      0.147340000000     0.096800000000     0.657220000000     0          
C260     C      0.216780000000     0.101800000000     0.734670000000     0          
C261     C      0.313450000000     0.759590000000     0.987680000000     0          
C262     C      0.345900000000     0.799420000000     0.981450000000     0          
C263     C      0.812080000000     0.262950000000     0.019610000000     0          
C264     C      0.848120000000     0.300160000000     0.021410000000     0          
C265     C      0.705500000000     0.769600000000     0.976660000000     0          
C266     C      0.664350000000     0.801960000000     0.970930000000     0          
C267     C      0.636580000000     0.753900000000     0.899170000000     0          
C268     C      0.678110000000     0.723090000000     0.903390000000     0          
C269     C      0.630080000000     0.793670000000     0.932050000000     0          
C270     C      0.712710000000     0.731140000000     0.941300000000     0          
C271     C      0.178400000000     0.251690000000     0.993600000000     0          
C272     C      0.142030000000     0.288560000000     0.984110000000     0          
C273     C      0.083170000000     0.222900000000     0.961200000000     0          
C274     C      0.116920000000     0.186810000000     0.976900000000     0          
C275     C      0.095620000000     0.273330000000     0.964160000000     0          
C276     C      0.164360000000     0.200890000000     0.992690000000     0          
C277     C      0.222640000000     0.797650000000     0.463330000000     0          
C278     C      0.186800000000     0.835200000000     0.462610000000     0          
C279     C      0.782310000000     0.206010000000     0.451030000000     0          
C280     C      0.824430000000     0.174250000000     0.451450000000     0          
C281     C      0.826230000000     0.175950000000     0.360540000000     0          
C282     C      0.783610000000     0.205610000000     0.360060000000     0          
C283     C      0.846700000000     0.160390000000     0.405760000000     0          
C284     C      0.761770000000     0.220710000000     0.404810000000     0          
C285     C      0.701730000000     0.718460000000     0.541830000000     0          
C286     C      0.666670000000     0.680640000000     0.541940000000     0          
C287     C      0.185200000000     0.244720000000     0.515750000000     0          
C288     C      0.146350000000     0.208660000000     0.518860000000     0          
C289     C      0.090810000000     0.274720000000     0.549510000000     0          
C290     C      0.128060000000     0.310000000000     0.543180000000     0          
C291     C      0.099610000000     0.224860000000     0.537740000000     0          
C292     C      0.174880000000     0.295350000000     0.526540000000     0          
C293     C      0.215050000000     0.964340000000     0.709430000000     0          
C294     C      0.178560000000     0.961750000000     0.672880000000     0          
C295     C      0.322400000000     0.504900000000     0.255150000000     0          
C296     C      0.356640000000     0.506370000000     0.293830000000     0          
C297     C      0.814250000000     0.474870000000     0.756060000000     0          
C298     C      0.853090000000     0.474800000000     0.792020000000     0          
C299     C      0.906580000000     0.431830000000     0.731490000000     0          
C300     C      0.868640000000     0.432670000000     0.696440000000     0          
C301     C      0.899040000000     0.452180000000     0.778670000000     0          
C302     C      0.822860000000     0.453900000000     0.708380000000     0          
C303     C      0.816530000000     0.977200000000     0.259710000000     0          
C304     C      0.851880000000     0.978910000000     0.297080000000     0          
C305     C      0.681810000000     0.537860000000     0.259210000000     0          
C306     C      0.646010000000     0.538600000000     0.298240000000     0          
C307     C      0.592540000000     0.591360000000     0.246700000000     0          
C308     C      0.625590000000     0.586840000000     0.207070000000     0          
C309     C      0.602680000000     0.567700000000     0.291830000000     0          
C310     C      0.669830000000     0.560210000000     0.212970000000     0          
C311     C      0.679190000000     0.016840000000     0.756540000000     0          
C312     C      0.644690000000     0.011110000000     0.794350000000     0          
C313     C      0.203880000000     0.547740000000     0.781080000000     0          
C314     C      0.165940000000     0.547170000000     0.817970000000     0          
C315     C      0.149190000000     0.635120000000     0.801790000000     0          
C316     C      0.187260000000     0.636100000000     0.766580000000     0          
C317     C      0.139210000000     0.591460000000     0.828140000000     0          
C318     C      0.215260000000     0.593320000000     0.757150000000     0          
C319     C      0.210240000000     0.047710000000     0.285870000000     0          
C320     C      0.167310000000     0.045920000000     0.316690000000     0          
C321     C      0.147970000000     0.130880000000     0.291300000000     0          
C322     C      0.193600000000     0.134870000000     0.267200000000     0          
C323     C      0.135680000000     0.087890000000     0.317980000000     0          
C324     C      0.224940000000     0.093690000000     0.264700000000     0          
C325     C      0.499610000000     0.254260000000     0.676350000000     0          
C326     C      0.496870000000     0.293420000000     0.642710000000     0          
C327     C      0.473780000000     0.256660000000     0.317500000000     0          
C328     C      0.470220000000     0.295220000000     0.353690000000     0          
C329     C      0.425240000000     0.237640000000     0.408390000000     0          
C330     C      0.433250000000     0.198890000000     0.374970000000     0          
C331     C      0.442960000000     0.285340000000     0.397780000000     0          
C332     C      0.457050000000     0.208150000000     0.329740000000     0          
C333     C      0.465410000000     0.775280000000     0.798310000000     0          
C334     C      0.462990000000     0.812600000000     0.833960000000     0          
C335     C      0.946990000000     0.297990000000     0.780710000000     0          
C336     C      0.948290000000     0.330910000000     0.821680000000     0          
C337     C      0.858730000000     0.343810000000     0.812930000000     0          
C338     C      0.858400000000     0.314560000000     0.770040000000     0          
C339     C      0.903240000000     0.352230000000     0.838670000000     0          
C340     C      0.902240000000     0.291730000000     0.753860000000     0          
C341     C      0.987600000000     0.757500000000     0.318950000000     0          
C342     C      0.992040000000     0.794350000000     0.355010000000     0          
C343     C      0.538170000000     0.715160000000     0.291280000000     0          
C344     C      0.539650000000     0.679220000000     0.328450000000     0          
C345     C      0.016050000000     0.743750000000     0.820060000000     0          
C346     C      0.011970000000     0.706660000000     0.855680000000     0          
C347     C      0.043170000000     0.226820000000     0.303760000000     0          
C348     C      0.041740000000     0.191430000000     0.343010000000     0          
C349     C      0.121320000000     0.223180000000     0.374070000000     0          
C350     C      0.123910000000     0.256310000000     0.334270000000     0          
C351     C      0.081040000000     0.190650000000     0.378250000000     0          
C352     C      0.085510000000     0.258040000000     0.299230000000     0          
C353     C      0.273870000000     0.801720000000     0.057520000000     0          
C354     C      0.306300000000     0.843330000000     0.050580000000     0          
C355     C      0.265890000000     0.884670000000     0.121190000000     0          
C356     C      0.234950000000     0.843670000000     0.128110000000     0          
C357     C      0.301600000000     0.884470000000     0.083180000000     0          
C358     C      0.238980000000     0.802350000000     0.096920000000     0          
C359     C      0.764870000000     0.310580000000     0.958340000000     0          
C360     C      0.802360000000     0.348130000000     0.959030000000     0          
C361     C      0.756720000000     0.393130000000     0.894270000000     0          
C362     C      0.719110000000     0.357530000000     0.895280000000     0          
C363     C      0.798180000000     0.388380000000     0.925360000000     0          
C364     C      0.722960000000     0.316510000000     0.926860000000     0          
C365     C      0.781430000000     0.205280000000     0.542130000000     0          
C366     C      0.820890000000     0.171910000000     0.542400000000     0          
C367     C      0.732700000000     0.816480000000     0.050320000000     0          
C368     C      0.694280000000     0.850640000000     0.044060000000     0          
C369     C      0.241630000000     0.316700000000     0.003640000000     0          
C370     C      0.205730000000     0.353940000000     0.001480000000     0          
C371     C      0.197100000000     0.773960000000     0.547260000000     0          
C372     C      0.161630000000     0.813330000000     0.547210000000     0          
C373     C      0.140840000000     0.793260000000     0.633410000000     0          
C374     C      0.173810000000     0.753300000000     0.632570000000     0          
C375     C      0.133980000000     0.822670000000     0.591030000000     0          
C376     C      0.201420000000     0.743230000000     0.589820000000     0          
C377     C      0.711690000000     0.709480000000     0.451580000000     0          
C378     C      0.676770000000     0.670010000000     0.451960000000     0          
C379     C      0.687060000000     0.660350000000     0.362090000000     0          
C380     C      0.720860000000     0.699740000000     0.361540000000     0          
C381     C      0.664770000000     0.645700000000     0.406740000000     0          
C382     C      0.732850000000     0.724500000000     0.405690000000     0          
C383     C      0.243300000000     0.180150000000     0.489540000000     0          
C384     C      0.205160000000     0.145180000000     0.489690000000     0          
Zr385    Zr     0.500000000000     0.500000000000     0.592180000000     0          
Zr386    Zr     0.500000000000     0.000000000000     0.092180000000     0          
Zr387    Zr     0.000000000000     0.500000000000     0.092180000000     0          
Zr388    Zr     0.000000000000     0.000000000000     0.592180000000     0          
Zr389    Zr     0.500000000000     0.500000000000     0.407820000000     0          
Zr390    Zr     0.500000000000     0.000000000000     0.907820000000     0          
Zr391    Zr     0.000000000000     0.500000000000     0.907820000000     0          
Zr392    Zr     0.000000000000     0.000000000000     0.407820000000     0          
Zr393    Zr     0.592180000000     0.500000000000     0.500000000000     0          
Zr394    Zr     0.592180000000     0.000000000000     0.000000000000     0          
Zr395    Zr     0.092180000000     0.500000000000     0.000000000000     0          
Zr396    Zr     0.092180000000     0.000000000000     0.500000000000     0          
Zr397    Zr     0.407820000000     0.500000000000     0.500000000000     0          
Zr398    Zr     0.407820000000     0.000000000000     0.000000000000     0          
Zr399    Zr     0.907820000000     0.500000000000     0.000000000000     0          
Zr400    Zr     0.907820000000     0.000000000000     0.500000000000     0          
Zr401    Zr     0.500000000000     0.592180000000     0.500000000000     0          
Zr402    Zr     0.500000000000     0.092180000000     0.000000000000     0          
Zr403    Zr     0.000000000000     0.592180000000     0.000000000000     0          
Zr404    Zr     0.000000000000     0.092180000000     0.500000000000     0          
Zr405    Zr     0.500000000000     0.407820000000     0.500000000000     0          
Zr406    Zr     0.500000000000     0.907820000000     0.000000000000     0          
Zr407    Zr     0.000000000000     0.407820000000     0.000000000000     0          
Zr408    Zr     0.000000000000     0.907820000000     0.500000000000     0          
O409     O      0.500000000000     0.572420000000     0.631940000000     0          
O410     O      0.500000000000     0.072420000000     0.131940000000     0          
O411     O      0.000000000000     0.572420000000     0.131940000000     0          
O412     O      0.000000000000     0.072420000000     0.631940000000     0          
O413     O      0.500000000000     0.427580000000     0.631940000000     0          
O414     O      0.500000000000     0.927580000000     0.131940000000     0          
O415     O      0.000000000000     0.427580000000     0.131940000000     0          
O416     O      0.000000000000     0.927580000000     0.631940000000     0          
O417     O      0.500000000000     0.572420000000     0.368060000000     0          
O418     O      0.500000000000     0.072420000000     0.868060000000     0          
O419     O      0.000000000000     0.572420000000     0.868060000000     0          
O420     O      0.000000000000     0.072420000000     0.368060000000     0          
O421     O      0.500000000000     0.427580000000     0.368060000000     0          
O422     O      0.500000000000     0.927580000000     0.868060000000     0          
O423     O      0.000000000000     0.427580000000     0.868060000000     0          
O424     O      0.000000000000     0.927580000000     0.368060000000     0          
O425     O      0.631940000000     0.500000000000     0.572420000000     0          
O426     O      0.631940000000     0.000000000000     0.072420000000     0          
O427     O      0.131940000000     0.500000000000     0.072420000000     0          
O428     O      0.131940000000     0.000000000000     0.572420000000     0          
O429     O      0.631940000000     0.500000000000     0.427580000000     0          
O430     O      0.631940000000     0.000000000000     0.927580000000     0          
O431     O      0.131940000000     0.500000000000     0.927580000000     0          
O432     O      0.131940000000     0.000000000000     0.427580000000     0          
O433     O      0.368060000000     0.500000000000     0.572420000000     0          
O434     O      0.368060000000     0.000000000000     0.072420000000     0          
O435     O      0.868060000000     0.500000000000     0.072420000000     0          
O436     O      0.868060000000     0.000000000000     0.572420000000     0          
O437     O      0.368060000000     0.500000000000     0.427580000000     0          
O438     O      0.368060000000     0.000000000000     0.927580000000     0          
O439     O      0.868060000000     0.500000000000     0.927580000000     0          
O440     O      0.868060000000     0.000000000000     0.427580000000     0          
O441     O      0.572420000000     0.631940000000     0.500000000000     0          
O442     O      0.572420000000     0.131940000000     0.000000000000     0          
O443     O      0.072420000000     0.631940000000     0.000000000000     0          
O444     O      0.072420000000     0.131940000000     0.500000000000     0          
O445     O      0.427580000000     0.631940000000     0.500000000000     0          
O446     O      0.427580000000     0.131940000000     0.000000000000     0          
O447     O      0.927580000000     0.631940000000     0.000000000000     0          
O448     O      0.927580000000     0.131940000000     0.500000000000     0          
O449     O      0.572420000000     0.368060000000     0.500000000000     0          
O450     O      0.572420000000     0.868060000000     0.000000000000     0          
O451     O      0.072420000000     0.368060000000     0.000000000000     0          
O452     O      0.072420000000     0.868060000000     0.500000000000     0          
O453     O      0.427580000000     0.368060000000     0.500000000000     0          
O454     O      0.427580000000     0.868060000000     0.000000000000     0          
O455     O      0.927580000000     0.368060000000     0.000000000000     0          
O456     O      0.927580000000     0.868060000000     0.500000000000     0          
O457     O      0.572420000000     0.500000000000     0.368060000000     0          
O458     O      0.572420000000     0.000000000000     0.868060000000     0          
O459     O      0.072420000000     0.500000000000     0.868060000000     0          
O460     O      0.072420000000     0.000000000000     0.368060000000     0          
O461     O      0.427580000000     0.500000000000     0.368060000000     0          
O462     O      0.427580000000     0.000000000000     0.868060000000     0          
O463     O      0.927580000000     0.500000000000     0.868060000000     0          
O464     O      0.927580000000     0.000000000000     0.368060000000     0          
O465     O      0.572420000000     0.500000000000     0.631940000000     0          
O466     O      0.572420000000     0.000000000000     0.131940000000     0          
O467     O      0.072420000000     0.500000000000     0.131940000000     0          
O468     O      0.072420000000     0.000000000000     0.631940000000     0          
O469     O      0.427580000000     0.500000000000     0.631940000000     0          
O470     O      0.427580000000     0.000000000000     0.131940000000     0          
O471     O      0.927580000000     0.500000000000     0.131940000000     0          
O472     O      0.927580000000     0.000000000000     0.631940000000     0          
O473     O      0.500000000000     0.631940000000     0.427580000000     0          
O474     O      0.500000000000     0.131940000000     0.927580000000     0          
O475     O      0.000000000000     0.631940000000     0.927580000000     0          
O476     O      0.000000000000     0.131940000000     0.427580000000     0          
O477     O      0.500000000000     0.631940000000     0.572420000000     0          
O478     O      0.500000000000     0.131940000000     0.072420000000     0          
O479     O      0.000000000000     0.631940000000     0.072420000000     0          
O480     O      0.000000000000     0.131940000000     0.572420000000     0          
O481     O      0.500000000000     0.368060000000     0.427580000000     0          
O482     O      0.500000000000     0.868060000000     0.927580000000     0          
O483     O      0.000000000000     0.368060000000     0.927580000000     0          
O484     O      0.000000000000     0.868060000000     0.427580000000     0          
O485     O      0.500000000000     0.368060000000     0.572420000000     0          
O486     O      0.500000000000     0.868060000000     0.072420000000     0          
O487     O      0.000000000000     0.368060000000     0.072420000000     0          
O488     O      0.000000000000     0.868060000000     0.572420000000     0          
O489     O      0.631940000000     0.572420000000     0.500000000000     0          
O490     O      0.631940000000     0.072420000000     0.000000000000     0          
O491     O      0.131940000000     0.572420000000     0.000000000000     0          
O492     O      0.131940000000     0.072420000000     0.500000000000     0          
O493     O      0.631940000000     0.427580000000     0.500000000000     0          
O494     O      0.631940000000     0.927580000000     0.000000000000     0          
O495     O      0.131940000000     0.427580000000     0.000000000000     0          
O496     O      0.131940000000     0.927580000000     0.500000000000     0          
O497     O      0.368060000000     0.572420000000     0.500000000000     0          
O498     O      0.368060000000     0.072420000000     0.000000000000     0          
O499     O      0.868060000000     0.572420000000     0.000000000000     0          
O500     O      0.868060000000     0.072420000000     0.500000000000     0          
O501     O      0.368060000000     0.427580000000     0.500000000000     0          
O502     O      0.368060000000     0.927580000000     0.000000000000     0          
O503     O      0.868060000000     0.427580000000     0.000000000000     0          
O504     O      0.868060000000     0.927580000000     0.500000000000     0          
C505     C      0.502680000000     0.617930000000     0.617660000000     0          
C506     C      0.508430000000     0.657120000000     0.656080000000     0          
C507     C      0.508780000000     0.729750000000     0.731780000000     0          
C508     C      0.499500000000     0.117610000000     0.117570000000     0          
C509     C      0.495810000000     0.156070000000     0.155670000000     0          
C510     C      0.492050000000     0.231090000000     0.228470000000     0          
C511     C      0.999490000000     0.617600000000     0.117700000000     0          
C512     C      0.999850000000     0.655850000000     0.156500000000     0          
C513     C      0.997320000000     0.728070000000     0.232200000000     0          
C514     C      0.998240000000     0.117590000000     0.617710000000     0          
C515     C      0.993890000000     0.155690000000     0.656560000000     0          
C516     C      0.993910000000     0.229940000000     0.731020000000     0          
C517     C      0.500510000000     0.382200000000     0.618330000000     0          
C518     C      0.502470000000     0.343350000000     0.658190000000     0          
C519     C      0.509630000000     0.263350000000     0.726400000000     0          
C520     C      0.497810000000     0.882050000000     0.117730000000     0          
C521     C      0.493160000000     0.842560000000     0.156060000000     0          
C522     C      0.494050000000     0.766890000000     0.229290000000     0          
C523     C      0.001810000000     0.382350000000     0.118230000000     0          
C524     C      0.004720000000     0.344530000000     0.158690000000     0          
C525     C      0.998500000000     0.269880000000     0.232560000000     0          
C526     C      0.999840000000     0.881710000000     0.619610000000     0          
C527     C      0.999810000000     0.844500000000     0.658370000000     0          
C528     C      0.004200000000     0.772480000000     0.733810000000     0          
C529     C      0.499430000000     0.617620000000     0.382470000000     0          
C530     C      0.495860000000     0.656130000000     0.344430000000     0          
C531     C      0.492620000000     0.730100000000     0.270480000000     0          
C532     C      0.499880000000     0.117610000000     0.882190000000     0          
C533     C      0.499710000000     0.155200000000     0.842550000000     0          
C534     C      0.502260000000     0.222590000000     0.762500000000     0          
C535     C      0.999480000000     0.619610000000     0.881120000000     0          
C536     C      0.000700000000     0.657560000000     0.841720000000     0          
C537     C      0.012740000000     0.731860000000     0.769510000000     0          
C538     C      0.000380000000     0.117650000000     0.382450000000     0          
C539     C      0.002370000000     0.156320000000     0.344390000000     0          
C540     C      0.002670000000     0.229340000000     0.269650000000     0          
C541     C      0.497640000000     0.382020000000     0.382260000000     0          
C542     C      0.492630000000     0.342540000000     0.343820000000     0          
C543     C      0.493010000000     0.267820000000     0.269600000000     0          
C544     C      0.500430000000     0.880360000000     0.881650000000     0          
C545     C      0.504860000000     0.841740000000     0.844170000000     0          
C546     C      0.510080000000     0.765820000000     0.773100000000     0          
C547     C      0.999040000000     0.380360000000     0.881710000000     0          
C548     C      0.994680000000     0.341850000000     0.844170000000     0          
C549     C      0.993510000000     0.270710000000     0.767390000000     0          
C550     C      0.001510000000     0.882240000000     0.381860000000     0          
C551     C      0.003150000000     0.843830000000     0.341940000000     0          
C552     C      0.992430000000     0.769280000000     0.268470000000     0          
C553     C      0.617470000000     0.499390000000     0.617640000000     0          
C554     C      0.655020000000     0.496390000000     0.656510000000     0          
C555     C      0.725830000000     0.495070000000     0.732980000000     0          
C556     C      0.617540000000     0.000470000000     0.117450000000     0          
C557     C      0.656160000000     0.002650000000     0.155100000000     0          
C558     C      0.733810000000     0.003750000000     0.225070000000     0          
C559     C      0.117780000000     0.500960000000     0.117620000000     0          
C560     C      0.157220000000     0.503090000000     0.155330000000     0          
C561     C      0.235970000000     0.502990000000     0.224170000000     0          
C562     C      0.117550000000     0.000730000000     0.617530000000     0          
C563     C      0.155660000000     0.005180000000     0.655700000000     0          
C564     C      0.229040000000     0.010350000000     0.729830000000     0          
C565     C      0.617620000000     0.503630000000     0.382200000000     0          
C566     C      0.655880000000     0.512200000000     0.343280000000     0          
C567     C      0.728990000000     0.515790000000     0.267970000000     0          
C568     C      0.620200000000     0.999870000000     0.881550000000     0          
C569     C      0.659940000000     0.002520000000     0.843720000000     0          
C570     C      0.729870000000     0.015880000000     0.767330000000     0          
C571     C      0.117610000000     0.500210000000     0.882390000000     0          
C572     C      0.155930000000     0.502430000000     0.843930000000     0          
C573     C      0.229100000000     0.502670000000     0.769050000000     0          
C574     C      0.117670000000     0.000780000000     0.382320000000     0          
C575     C      0.156550000000     0.001990000000     0.344130000000     0          
C576     C      0.236120000000     0.003170000000     0.275310000000     0          
C577     C      0.381980000000     0.501970000000     0.617690000000     0          
C578     C      0.342120000000     0.505470000000     0.655740000000     0          
C579     C      0.266070000000     0.499900000000     0.728160000000     0          
C580     C      0.382190000000     0.001440000000     0.117790000000     0          
C581     C      0.343530000000     0.003070000000     0.156800000000     0          
C582     C      0.269960000000     0.998650000000     0.232200000000     0          
C583     C      0.881510000000     0.500860000000     0.119560000000     0          
C584     C      0.843300000000     0.506810000000     0.157440000000     0          
C585     C      0.768850000000     0.514680000000     0.230200000000     0          
C586     C      0.881520000000     0.000300000000     0.619430000000     0          
C587     C      0.842900000000     0.001710000000     0.656840000000     0          
C588     C      0.764430000000     0.008160000000     0.726050000000     0          
C589     C      0.381660000000     0.500590000000     0.382280000000     0          
C590     C      0.341510000000     0.501350000000     0.343860000000     0          
C591     C      0.272160000000     0.496310000000     0.264910000000     0          
C592     C      0.380290000000     0.002100000000     0.881380000000     0          
C593     C      0.341890000000     0.008600000000     0.842910000000     0          
C594     C      0.269190000000     0.010300000000     0.767420000000     0          
C595     C      0.881590000000     0.498840000000     0.879850000000     0          
C596     C      0.843870000000     0.496320000000     0.840040000000     0          
C597     C      0.767410000000     0.495570000000     0.768480000000     0          
C598     C      0.881260000000     0.001430000000     0.380320000000     0          
C599     C      0.842420000000     0.004230000000     0.341800000000     0          
C600     C      0.768650000000     0.002510000000     0.267010000000     0          
C601     C      0.617370000000     0.617490000000     0.499780000000     0          
C602     C      0.654840000000     0.655980000000     0.497690000000     0          
C603     C      0.725010000000     0.732340000000     0.497360000000     0          
C604     C      0.617710000000     0.117630000000     0.998510000000     0          
C605     C      0.656550000000     0.155730000000     0.993470000000     0          
C606     C      0.732730000000     0.227640000000     0.989350000000     0          
C607     C      0.117850000000     0.617580000000     0.001410000000     0          
C608     C      0.157280000000     0.655270000000     0.005900000000     0          
C609     C      0.234420000000     0.725470000000     0.018640000000     0          
C610     C      0.117780000000     0.118220000000     0.501530000000     0          
C611     C      0.156420000000     0.158110000000     0.504110000000     0          
C612     C      0.233880000000     0.229530000000     0.502670000000     0          
C613     C      0.382250000000     0.617710000000     0.501530000000     0          
C614     C      0.343440000000     0.656180000000     0.505470000000     0          
C615     C      0.269200000000     0.730270000000     0.505490000000     0          
C616     C      0.382350000000     0.117590000000     0.999650000000     0          
C617     C      0.343680000000     0.155720000000     0.997370000000     0          
C618     C      0.269480000000     0.229390000000     0.996950000000     0          
C619     C      0.880930000000     0.619670000000     0.002170000000     0          
C620     C      0.841900000000     0.657870000000     0.011520000000     0          
C621     C      0.775620000000     0.737990000000     0.029620000000     0          
C622     C      0.881560000000     0.119510000000     0.499860000000     0          
C623     C      0.843020000000     0.157180000000     0.497630000000     0          
C624     C      0.762550000000     0.223140000000     0.496970000000     0          
C625     C      0.618030000000     0.382170000000     0.498710000000     0          
C626     C      0.657170000000     0.343080000000     0.496670000000     0          
C627     C      0.727820000000     0.265420000000     0.498870000000     0          
C628     C      0.619820000000     0.881580000000     0.000930000000     0          
C629     C      0.659140000000     0.844390000000     0.006070000000     0          
C630     C      0.738180000000     0.776130000000     0.017750000000     0          
C631     C      0.117650000000     0.381960000000     0.997870000000     0          
C632     C      0.155580000000     0.342210000000     0.993250000000     0          
C633     C      0.228700000000     0.266220000000     0.000070000000     0          
C634     C      0.117710000000     0.882240000000     0.500870000000     0          
C635     C      0.156060000000     0.843280000000     0.504010000000     0          
C636     C      0.228270000000     0.767120000000     0.505260000000     0          
C637     C      0.382500000000     0.382320000000     0.500350000000     0          
C638     C      0.344950000000     0.343230000000     0.503000000000     0          
C639     C      0.275920000000     0.264850000000     0.504360000000     0          
C640     C      0.380140000000     0.881340000000     0.002700000000     0          
C641     C      0.342310000000     0.842040000000     0.011320000000     0          
C642     C      0.276330000000     0.760910000000     0.024240000000     0          
C643     C      0.882190000000     0.382240000000     0.997700000000     0          
C644     C      0.843510000000     0.343320000000     0.992340000000     0          
C645     C      0.770390000000     0.267820000000     0.988690000000     0          
C646     C      0.879610000000     0.879180000000     0.499360000000     0          
C647     C      0.841660000000     0.839860000000     0.496990000000     0          
C648     C      0.766490000000     0.767590000000     0.500500000000     0          
O649     O      0.461480000000     0.461480000000     0.538520000000     0          
O650     O      0.448410000000     0.448410000000     0.551590000000     0          
O651     O      0.461480000000     0.961480000000     0.038520000000     0          
O652     O      0.448410000000     0.948410000000     0.051590000000     0          
O653     O      0.961480000000     0.461480000000     0.038520000000     0          
O654     O      0.948410000000     0.448410000000     0.051590000000     0          
O655     O      0.961480000000     0.961480000000     0.538520000000     0          
O656     O      0.948410000000     0.948410000000     0.551590000000     0          
O657     O      0.538520000000     0.538520000000     0.538520000000     0          
O658     O      0.551590000000     0.551590000000     0.551590000000     0          
O659     O      0.538520000000     0.038520000000     0.038520000000     0          
O660     O      0.551590000000     0.051590000000     0.051590000000     0          
O661     O      0.038520000000     0.538520000000     0.038520000000     0          
O662     O      0.051590000000     0.551590000000     0.051590000000     0          
O663     O      0.038520000000     0.038520000000     0.538520000000     0          
O664     O      0.051590000000     0.051590000000     0.551590000000     0          
O665     O      0.538520000000     0.461480000000     0.461480000000     0          
O666     O      0.551590000000     0.448410000000     0.448410000000     0          
O667     O      0.538520000000     0.961480000000     0.961480000000     0          
O668     O      0.551590000000     0.948410000000     0.948410000000     0          
O669     O      0.038520000000     0.461480000000     0.961480000000     0          
O670     O      0.051590000000     0.448410000000     0.948410000000     0          
O671     O      0.038520000000     0.961480000000     0.461480000000     0          
O672     O      0.051590000000     0.948410000000     0.448410000000     0          
O673     O      0.461480000000     0.538520000000     0.461480000000     0          
O674     O      0.448410000000     0.551590000000     0.448410000000     0          
O675     O      0.461480000000     0.038520000000     0.961480000000     0          
O676     O      0.448410000000     0.051590000000     0.948410000000     0          
O677     O      0.961480000000     0.538520000000     0.961480000000     0          
O678     O      0.948410000000     0.551590000000     0.948410000000     0          
O679     O      0.961480000000     0.038520000000     0.461480000000     0          
O680     O      0.948410000000     0.051590000000     0.448410000000     0          
O681     O      0.461480000000     0.461480000000     0.461480000000     0          
O682     O      0.448410000000     0.448410000000     0.448410000000     0          
O683     O      0.461480000000     0.961480000000     0.961480000000     0          
O684     O      0.448410000000     0.948410000000     0.948410000000     0          
O685     O      0.961480000000     0.461480000000     0.961480000000     0          
O686     O      0.948410000000     0.448410000000     0.948410000000     0          
O687     O      0.961480000000     0.961480000000     0.461480000000     0          
O688     O      0.948410000000     0.948410000000     0.448410000000     0          
O689     O      0.538520000000     0.538520000000     0.461480000000     0          
O690     O      0.551590000000     0.551590000000     0.448410000000     0          
O691     O      0.538520000000     0.038520000000     0.961480000000     0          
O692     O      0.551590000000     0.051590000000     0.948410000000     0          
O693     O      0.038520000000     0.538520000000     0.961480000000     0          
O694     O      0.051590000000     0.551590000000     0.948410000000     0          
O695     O      0.038520000000     0.038520000000     0.461480000000     0          
O696     O      0.051590000000     0.051590000000     0.448410000000     0          
O697     O      0.461480000000     0.538520000000     0.538520000000     0          
O698     O      0.448410000000     0.551590000000     0.551590000000     0          
O699     O      0.461480000000     0.038520000000     0.038520000000     0          
O700     O      0.448410000000     0.051590000000     0.051590000000     0          
O701     O      0.961480000000     0.538520000000     0.038520000000     0          
O702     O      0.948410000000     0.551590000000     0.051590000000     0          
O703     O      0.961480000000     0.038520000000     0.538520000000     0          
O704     O      0.948410000000     0.051590000000     0.551590000000     0          
O705     O      0.538520000000     0.461480000000     0.538520000000     0          
O706     O      0.551590000000     0.448410000000     0.551590000000     0          
O707     O      0.538520000000     0.961480000000     0.038520000000     0          
O708     O      0.551590000000     0.948410000000     0.051590000000     0          
O709     O      0.038520000000     0.461480000000     0.038520000000     0          
O710     O      0.051590000000     0.448410000000     0.051590000000     0          
O711     O      0.038520000000     0.961480000000     0.538520000000     0          
O712     O      0.051590000000     0.948410000000     0.551590000000     0          
H713     H      0.707270000000     0.551450000000     0.045570000000     0          
H714     H      0.655980000000     0.621580000000     0.075560000000     0          
H715     H      0.788020000000     0.564780000000     0.012270000000     0          
H716     H      0.687210000000     0.707270000000     0.069530000000     0          
H717     H      0.609660000000     0.747280000000     0.869920000000     0          
H718     H      0.683530000000     0.692800000000     0.877270000000     0          
H719     H      0.598130000000     0.817580000000     0.926870000000     0          
H720     H      0.745030000000     0.707040000000     0.942540000000     0          
H721     H      0.838020000000     0.785210000000     0.012430000000     0          
H722     H      0.895880000000     0.717350000000     0.000640000000     0          
H723     H      0.757900000000     0.820900000000     0.081630000000     0          
H724     H      0.691160000000     0.879750000000     0.068660000000     0          
H725     H      0.632170000000     0.327760000000     0.682940000000     0          
H726     H      0.694340000000     0.326790000000     0.751000000000     0          
H727     H      0.612660000000     0.405190000000     0.639220000000     0          
H728     H      0.737150000000     0.403230000000     0.775870000000     0          
H729     H      0.734800000000     0.573490000000     0.716960000000     0          
H730     H      0.672110000000     0.574890000000     0.650800000000     0          
H731     H      0.723830000000     0.533660000000     0.824260000000     0          
H732     H      0.789790000000     0.534610000000     0.886240000000     0          
H733     H      0.941870000000     0.414390000000     0.722540000000     0          
H734     H      0.874540000000     0.416320000000     0.660010000000     0          
H735     H      0.929490000000     0.447300000000     0.804030000000     0          
H736     H      0.794380000000     0.453620000000     0.679880000000     0          
H737     H      0.703560000000     0.106660000000     0.835280000000     0          
H738     H      0.772780000000     0.167040000000     0.833130000000     0          
H739     H      0.650030000000     0.099850000000     0.908490000000     0          
H740     H      0.787880000000     0.222800000000     0.903600000000     0          
H741     H      0.754130000000     0.424060000000     0.868600000000     0          
H742     H      0.687180000000     0.361340000000     0.870860000000     0          
H743     H      0.827270000000     0.415720000000     0.921480000000     0          
H744     H      0.692970000000     0.289490000000     0.926210000000     0          
H745     H      0.704450000000     0.249820000000     0.059370000000     0          
H746     H      0.638060000000     0.189020000000     0.064230000000     0          
H747     H      0.816470000000     0.230150000000     0.042780000000     0          
H748     H      0.877860000000     0.295780000000     0.045050000000     0          
H749     H      0.487660000000     0.669260000000     0.780540000000     0          
H750     H      0.484260000000     0.607240000000     0.715150000000     0          
H751     H      0.568680000000     0.780770000000     0.550630000000     0          
H752     H      0.551600000000     0.846350000000     0.612980000000     0          
H753     H      0.555810000000     0.694320000000     0.570400000000     0          
H754     H      0.522340000000     0.824330000000     0.696130000000     0          
H755     H      0.672080000000     0.871250000000     0.817280000000     0          
H756     H      0.678430000000     0.800430000000     0.758590000000     0          
H757     H      0.593060000000     0.891080000000     0.857460000000     0          
H758     H      0.605070000000     0.750260000000     0.738530000000     0          
H759     H      0.431980000000     0.754340000000     0.789470000000     0          
H760     H      0.427930000000     0.819620000000     0.852780000000     0          
H761     H      0.110440000000     0.742070000000     0.865370000000     0          
H762     H      0.175070000000     0.805860000000     0.878770000000     0          
H763     H      0.100100000000     0.673110000000     0.923400000000     0          
H764     H      0.230130000000     0.801520000000     0.950720000000     0          
H765     H      0.262260000000     0.916610000000     0.145630000000     0          
H766     H      0.207650000000     0.843860000000     0.157820000000     0          
H767     H      0.324860000000     0.916860000000     0.079620000000     0          
H768     H      0.215070000000     0.770820000000     0.104210000000     0          
H769     H      0.257140000000     0.679470000000     0.080900000000     0          
H770     H      0.190110000000     0.618430000000     0.069870000000     0          
H771     H      0.315050000000     0.728820000000     0.961550000000     0          
H772     H      0.372980000000     0.797750000000     0.951510000000     0          
H773     H      0.668380000000     0.220970000000     0.529730000000     0          
H774     H      0.607970000000     0.288290000000     0.530380000000     0          
H775     H      0.780970000000     0.439440000000     0.422500000000     0          
H776     H      0.844320000000     0.374760000000     0.436100000000     0          
H777     H      0.694610000000     0.424940000000     0.445310000000     0          
H778     H      0.821730000000     0.295150000000     0.472960000000     0          
H779     H      0.843140000000     0.164450000000     0.325760000000     0          
H780     H      0.767540000000     0.217130000000     0.324860000000     0          
H781     H      0.879450000000     0.136790000000     0.404610000000     0          
H782     H      0.728670000000     0.243750000000     0.402990000000     0          
H783     H      0.766450000000     0.218450000000     0.577280000000     0          
H784     H      0.834720000000     0.158010000000     0.577750000000     0          
H785     H      0.863070000000     0.079030000000     0.738510000000     0          
H786     H      0.870120000000     0.135800000000     0.810380000000     0          
H787     H      0.916680000000     0.088900000000     0.665770000000     0          
H788     H      0.931340000000     0.203450000000     0.809370000000     0          
H789     H      0.824700000000     0.361420000000     0.825140000000     0          
H790     H      0.824050000000     0.309490000000     0.749410000000     0          
H791     H      0.902310000000     0.376330000000     0.871070000000     0          
H792     H      0.900870000000     0.268940000000     0.720640000000     0          
H793     H      0.051700000000     0.261630000000     0.688110000000     0          
H794     H      0.054030000000     0.197220000000     0.627900000000     0          
H795     H      0.072070000000     0.262620000000     0.783050000000     0          
H796     H      0.071630000000     0.325880000000     0.846650000000     0          
H797     H      0.223700000000     0.575070000000     0.550630000000     0          
H798     H      0.155010000000     0.550400000000     0.606920000000     0          
H799     H      0.309400000000     0.561400000000     0.574350000000     0          
H800     H      0.173210000000     0.514110000000     0.688560000000     0          
H801     H      0.324750000000     0.475780000000     0.777770000000     0          
H802     H      0.389570000000     0.476470000000     0.714460000000     0          
H803     H      0.237720000000     0.424560000000     0.786980000000     0          
H804     H      0.174790000000     0.424640000000     0.852870000000     0          
H805     H      0.127570000000     0.668410000000     0.808970000000     0          
H806     H      0.195250000000     0.670180000000     0.746510000000     0          
H807     H      0.110350000000     0.592730000000     0.856310000000     0          
H808     H      0.245520000000     0.596370000000     0.730700000000     0          
H809     H      0.296400000000     0.247380000000     0.070700000000     0          
H810     H      0.361020000000     0.184700000000     0.068430000000     0          
H811     H      0.280310000000     0.327400000000     0.008320000000     0          
H812     H      0.217470000000     0.392230000000     0.006780000000     0          
H813     H      0.294770000000     0.113910000000     0.838020000000     0          
H814     H      0.233980000000     0.182690000000     0.834740000000     0          
H815     H      0.345820000000     0.100310000000     0.911730000000     0          
H816     H      0.222620000000     0.237500000000     0.906220000000     0          
H817     H      0.047280000000     0.211800000000     0.946420000000     0          
H818     H      0.106990000000     0.147710000000     0.975180000000     0          
H819     H      0.068970000000     0.299470000000     0.949380000000     0          
H820     H      0.190290000000     0.171790000000     0.003100000000     0          
H821     H      0.280440000000     0.268330000000     0.424060000000     0          
H822     H      0.341330000000     0.336150000000     0.422860000000     0          
H823     H      0.342060000000     0.341230000000     0.675000000000     0          
H824     H      0.281370000000     0.271850000000     0.676420000000     0          
H825     H      0.372330000000     0.374730000000     0.595960000000     0          
H826     H      0.250950000000     0.235240000000     0.598730000000     0          
H827     H      0.054800000000     0.286020000000     0.563870000000     0          
H828     H      0.120960000000     0.348740000000     0.552060000000     0          
H829     H      0.069190000000     0.200210000000     0.545480000000     0          
H830     H      0.202930000000     0.324100000000     0.522460000000     0          
H831     H      0.280630000000     0.168580000000     0.479270000000     0          
H832     H      0.214080000000     0.107510000000     0.478150000000     0          
H833     H      0.432940000000     0.118930000000     0.746430000000     0          
H834     H      0.376370000000     0.107930000000     0.674560000000     0          
H835     H      0.144460000000     0.176750000000     0.662630000000     0          
H836     H      0.205210000000     0.181120000000     0.731760000000     0          
H837     H      0.416500000000     0.076640000000     0.824860000000     0          
H838     H      0.301820000000     0.056340000000     0.682220000000     0          
H839     H      0.120180000000     0.096480000000     0.627360000000     0          
H840     H      0.242830000000     0.105390000000     0.765150000000     0          
H841     H      0.424640000000     0.747140000000     0.627370000000     0          
H842     H      0.363460000000     0.815550000000     0.621680000000     0          
H843     H      0.414220000000     0.671960000000     0.578090000000     0          
H844     H      0.291330000000     0.809090000000     0.566510000000     0          
H845     H      0.231420000000     0.682700000000     0.452600000000     0          
H846     H      0.296100000000     0.618840000000     0.451800000000     0          
H847     H      0.246600000000     0.792610000000     0.431180000000     0          
H848     H      0.183100000000     0.858140000000     0.429560000000     0          
H849     H      0.120940000000     0.801510000000     0.667320000000     0          
H850     H      0.178480000000     0.730400000000     0.665450000000     0          
H851     H      0.107940000000     0.853380000000     0.593280000000     0          
H852     H      0.226750000000     0.711800000000     0.590780000000     0          
H853     H      0.570480000000     0.185370000000     0.741720000000     0          
H854     H      0.567080000000     0.125080000000     0.810010000000     0          
H855     H      0.354730000000     0.232990000000     0.893480000000     0          
H856     H      0.353830000000     0.287570000000     0.819810000000     0          
H857     H      0.419230000000     0.169700000000     0.904000000000     0          
H858     H      0.420030000000     0.282350000000     0.757770000000     0          
H859     H      0.527110000000     0.446930000000     0.796620000000     0          
H860     H      0.545870000000     0.375240000000     0.850810000000     0          
H861     H      0.504360000000     0.435850000000     0.712300000000     0          
H862     H      0.539870000000     0.290560000000     0.818910000000     0          
H863     H      0.492410000000     0.216620000000     0.663470000000     0          
H864     H      0.488930000000     0.284280000000     0.604170000000     0          
H865     H      0.036530000000     0.454190000000     0.289920000000     0          
H866     H      0.007200000000     0.392720000000     0.351860000000     0          
H867     H      0.042480000000     0.432640000000     0.203210000000     0          
H868     H      0.986570000000     0.307960000000     0.326140000000     0          
H869     H      0.151540000000     0.221270000000     0.400730000000     0          
H870     H      0.156310000000     0.280030000000     0.329980000000     0          
H871     H      0.082330000000     0.163720000000     0.408080000000     0          
H872     H      0.089810000000     0.283360000000     0.268160000000     0          
H873     H      0.994160000000     0.218680000000     0.170600000000     0          
H874     H      0.994330000000     0.282980000000     0.107080000000     0          
H875     H      0.933570000000     0.195400000000     0.245770000000     0          
H876     H      0.934480000000     0.130500000000     0.309540000000     0          
H877     H      0.226460000000     0.086140000000     0.060800000000     0          
H878     H      0.158200000000     0.061000000000     0.117440000000     0          
H879     H      0.312350000000     0.065540000000     0.080380000000     0          
H880     H      0.176810000000     0.019430000000     0.196410000000     0          
H881     H      0.122300000000     0.161460000000     0.289300000000     0          
H882     H      0.203870000000     0.169440000000     0.248990000000     0          
H883     H      0.100650000000     0.087180000000     0.337910000000     0          
H884     H      0.259780000000     0.097540000000     0.244640000000     0          
H885     H      0.225370000000     0.965930000000     0.818470000000     0          
H886     H      0.289130000000     0.962640000000     0.882890000000     0          
H887     H      0.232790000000     0.930190000000     0.721790000000     0          
H888     H      0.168250000000     0.925700000000     0.657740000000     0          
H889     H      0.329940000000     0.961290000000     0.275860000000     0          
H890     H      0.390820000000     0.962890000000     0.208840000000     0          
H891     H      0.245580000000     0.924000000000     0.298710000000     0          
H892     H      0.177830000000     0.925850000000     0.359880000000     0          
H893     H      0.261660000000     0.437670000000     0.184860000000     0          
H894     H      0.194460000000     0.438990000000     0.123550000000     0          
H895     H      0.095820000000     0.641630000000     0.237580000000     0          
H896     H      0.168150000000     0.644760000000     0.293860000000     0          
H897     H      0.091180000000     0.579970000000     0.170980000000     0          
H898     H      0.234810000000     0.583450000000     0.286690000000     0          
H899     H      0.203310000000     0.485170000000     0.449310000000     0          
H900     H      0.148430000000     0.463610000000     0.378830000000     0          
H901     H      0.287740000000     0.507900000000     0.436280000000     0          
H902     H      0.179620000000     0.466700000000     0.293680000000     0          
H903     H      0.335070000000     0.511390000000     0.217320000000     0          
H904     H      0.395390000000     0.512600000000     0.284260000000     0          
H905     H      0.158470000000     0.708380000000     0.119190000000     0          
H906     H      0.160180000000     0.765950000000     0.190740000000     0          
H907     H      0.085560000000     0.658090000000     0.101540000000     0          
H908     H      0.087600000000     0.774710000000     0.244460000000     0          
H909     H      0.052600000000     0.947920000000     0.212070000000     0          
H910     H      0.020450000000     0.888860000000     0.149090000000     0          
H911     H      0.049820000000     0.927460000000     0.299780000000     0          
H912     H      0.989320000000     0.806990000000     0.174170000000     0          
H913     H      0.324470000000     0.145520000000     0.165730000000     0          
H914     H      0.320330000000     0.215520000000     0.225500000000     0          
H915     H      0.404310000000     0.118210000000     0.131810000000     0          
H916     H      0.396260000000     0.257860000000     0.252530000000     0          
H917     H      0.572410000000     0.231640000000     0.221940000000     0          
H918     H      0.575400000000     0.167560000000     0.157320000000     0          
H919     H      0.527340000000     0.323990000000     0.223300000000     0          
H920     H      0.529520000000     0.387520000000     0.287760000000     0          
H921     H      0.405020000000     0.230800000000     0.442680000000     0          
H922     H      0.419820000000     0.161790000000     0.383540000000     0          
H923     H      0.433280000000     0.314300000000     0.423690000000     0          
H924     H      0.461690000000     0.177140000000     0.304330000000     0          
H925     H      0.532780000000     0.821180000000     0.274460000000     0          
H926     H      0.535090000000     0.885140000000     0.210320000000     0          
H927     H      0.396330000000     0.735960000000     0.060510000000     0          
H928     H      0.413300000000     0.665030000000     0.116680000000     0          
H929     H      0.428470000000     0.818440000000     0.079520000000     0          
H930     H      0.460370000000     0.677350000000     0.193660000000     0          
H931     H      0.324500000000     0.646430000000     0.335010000000     0          
H932     H      0.320650000000     0.715710000000     0.274330000000     0          
H933     H      0.404290000000     0.619040000000     0.368890000000     0          
H934     H      0.396680000000     0.757140000000     0.246410000000     0          
H935     H      0.572920000000     0.731070000000     0.278160000000     0          
H936     H      0.575310000000     0.668550000000     0.344080000000     0          
H937     H      0.674180000000     0.173600000000     0.143340000000     0          
H938     H      0.745530000000     0.173550000000     0.201200000000     0          
H939     H      0.633050000000     0.095590000000     0.120030000000     0          
H940     H      0.775260000000     0.095840000000     0.238100000000     0          
H941     H      0.733140000000     0.102080000000     0.433700000000     0          
H942     H      0.666370000000     0.092930000000     0.371120000000     0          
H943     H      0.813510000000     0.064660000000     0.420920000000     0          
H944     H      0.681040000000     0.045670000000     0.295080000000     0          
H945     H      0.925130000000     0.697130000000     0.250120000000     0          
H946     H      0.929630000000     0.631530000000     0.187090000000     0          
H947     H      0.981330000000     0.719330000000     0.330620000000     0          
H948     H      0.987710000000     0.783640000000     0.393590000000     0          
H949     H      0.720460000000     0.921810000000     0.227910000000     0          
H950     H      0.653030000000     0.922950000000     0.166280000000     0          
H951     H      0.824440000000     0.957460000000     0.225350000000     0          
H952     H      0.886800000000     0.959410000000     0.291350000000     0          
H953     H      0.873130000000     0.840420000000     0.716330000000     0          
H954     H      0.800680000000     0.843920000000     0.772810000000     0          
H955     H      0.893310000000     0.911100000000     0.661570000000     0          
H956     H      0.749160000000     0.919150000000     0.776890000000     0          
H957     H      0.796350000000     0.984930000000     0.950300000000     0          
H958     H      0.854730000000     0.012450000000     0.884780000000     0          
H959     H      0.709810000000     0.973520000000     0.932790000000     0          
H960     H      0.824880000000     0.027210000000     0.800230000000     0          
H961     H      0.751100000000     0.080610000000     0.693850000000     0          
H962     H      0.817200000000     0.073680000000     0.631890000000     0          
H963     H      0.666310000000     0.020090000000     0.718340000000     0          
H964     H      0.605600000000     0.012430000000     0.784400000000     0          
H965     H      0.768470000000     0.434080000000     0.228410000000     0          
H966     H      0.834720000000     0.427290000000     0.166340000000     0          
H967     H      0.775900000000     0.478590000000     0.321740000000     0          
H968     H      0.713130000000     0.476110000000     0.386060000000     0          
H969     H      0.842880000000     0.678550000000     0.147330000000     0          
H970     H      0.785210000000     0.685720000000     0.218910000000     0          
H971     H      0.870950000000     0.596810000000     0.118620000000     0          
H972     H      0.752500000000     0.611250000000     0.259700000000     0          
H973     H      0.559020000000     0.613510000000     0.242590000000     0          
H974     H      0.617500000000     0.605080000000     0.172000000000     0          
H975     H      0.577510000000     0.574430000000     0.322100000000     0          
H976     H      0.694800000000     0.558170000000     0.181380000000     0          
H977     H      0.945320000000     0.714810000000     0.436280000000     0          
H978     H      0.883070000000     0.649840000000     0.454970000000     0          
H979     H      0.926380000000     0.801680000000     0.449540000000     0          
H980     H      0.800740000000     0.672680000000     0.485960000000     0          
H981     H      0.718240000000     0.828100000000     0.522470000000     0          
H982     H      0.784090000000     0.890320000000     0.522840000000     0          
H983     H      0.711740000000     0.736160000000     0.576760000000     0          
H984     H      0.649240000000     0.669950000000     0.576830000000     0          
H985     H      0.677930000000     0.641290000000     0.327730000000     0          
H986     H      0.737900000000     0.711100000000     0.326750000000     0          
H987     H      0.638200000000     0.615340000000     0.405510000000     0          
H988     H      0.758740000000     0.755380000000     0.403560000000     0          
H989     H      0.851170000000     0.768620000000     0.607570000000     0          
H990     H      0.851100000000     0.712440000000     0.680760000000     0          
H991     H      0.917700000000     0.829960000000     0.596570000000     0          
H992     H      0.918850000000     0.715480000000     0.741190000000     0          
H993     H      0.962000000000     0.552660000000     0.708830000000     0          
H994     H      0.999310000000     0.611480000000     0.648400000000     0          
H995     H      0.956720000000     0.573550000000     0.796100000000     0          
H996     H      0.026580000000     0.694160000000     0.676080000000     0          
H997     H      0.071290000000     0.810970000000     0.756440000000     0          
H998     H      0.065210000000     0.875620000000     0.693190000000     0          
H999     H      0.020780000000     0.782050000000     0.832050000000     0          
H1000    H      0.016780000000     0.716770000000     0.894490000000     0          


