data_QOKBOJ

_audit_creation_method RASPA-1.0
_audit_creation_date 2020-11-2
_audit_author_name 'Rocio Bueno-Perez'

_cell_length_a    34.4985
_cell_length_b    34.4985
_cell_length_c    20.3429
_cell_angle_alpha 90
_cell_angle_beta  90
_cell_angle_gamma 90
_cell_volume      24211

_symmetry_cell_setting          tetragonal
_symmetry_space_group_name_Hall 'P 1'
_symmetry_space_group_name_H-M  'P 1'
_symmetry_Int_Tables_number     1

_symmetry_equiv_pos_as_xyz 'x,y,z'

loop_
_atom_site_label
_atom_site_type_symbol
_atom_site_fract_x
_atom_site_fract_y
_atom_site_fract_z
_atom_site_charge
Zr2      Zr     0.051070000000     0.958250000000     0.549630000000     0          
O1       O      0.038530000000     0.025060000000     0.682210000000     0          
O3       O      0.073380000000     0.972780000000     0.649290000000     0          
O4       O      0.387860000000     0.974320000000     0.965690000000     0          
O6       O      0.050470000000     0.022190000000     0.549000000000     0          
C1       C      0.083790000000     0.997700000000     0.755800000000     0          
C2       C      0.069440000000     0.018700000000     0.807500000000     0          
H1       H      0.046900000000     0.033100000000     0.801900000000     0          
C3       C      0.087750000000     0.018800000000     0.867600000000     0          
H2       H      0.077400000000     0.033000000000     0.902300000000     0          
C4       C      0.121650000000     0.997600000000     0.876400000000     0          
C5       C      0.136260000000     0.974300000000     0.824100000000     0          
H3       H      0.158200000000     0.959100000000     0.829700000000     0          
C6       C      0.116400000000     0.975100000000     0.764100000000     0          
H4       H      0.125400000000     0.960200000000     0.729200000000     0          
C8       C      0.144390000000     0.998200000000     0.941000000000     0          
C9       C      0.184030000000     0.997900000000     0.941500000000     0          
H6       H      0.197600000000     0.996200000000     0.902100000000     0          
C12      C      0.267680000000     0.973200000000     0.962100000000     0          
H7       H      0.254500000000     0.955000000000     0.936900000000     0          
C13      C      0.307610000000     0.973900000000     0.962000000000     0          
H8       H      0.321100000000     0.956400000000     0.935800000000     0          
C15      C      0.062080000000     0.998700000000     0.690200000000     0          
Zr1      Zr     0.000000000000     0.040530000000     0.600580000000     0          
O5       O      0.000000000000     0.977500000000     0.598000000000     0          
O7       O      0.000000000000     0.063600000000     0.501000000000     0          
C7       C      0.122900000000     0.000000000000     0.000000000000     0          
H5       H      0.096000000000     0.000000000000     0.000000000000     0          
C10      C      0.204000000000     0.000000000000     0.000000000000     0          
C11      C      0.246900000000     0.000000000000     0.000000000000     0          
C14      C      0.328000000000     0.000000000000     0.000000000000     0          
C16      C      0.371000000000     0.000000000000     0.000000000000     0          
Zr2      Zr     0.291750000000     0.801070000000     0.799630000000     0          
O1       O      0.224940000000     0.788530000000     0.932210000000     0          
O3       O      0.277220000000     0.823380000000     0.899290000000     0          
O4       O      0.275680000000     0.137860000000     0.215690000000     0          
O6       O      0.227810000000     0.800470000000     0.799000000000     0          
C1       C      0.252300000000     0.833790000000     0.005800000000     0          
C2       C      0.231300000000     0.819440000000     0.057500000000     0          
H1       H      0.216900000000     0.796900000000     0.051900000000     0          
C3       C      0.231200000000     0.837750000000     0.117600000000     0          
H2       H      0.217000000000     0.827400000000     0.152300000000     0          
C4       C      0.252400000000     0.871650000000     0.126400000000     0          
C5       C      0.275700000000     0.886260000000     0.074100000000     0          
H3       H      0.290900000000     0.908200000000     0.079700000000     0          
C6       C      0.274900000000     0.866400000000     0.014100000000     0          
H4       H      0.289800000000     0.875400000000     0.979200000000     0          
C8       C      0.251800000000     0.894390000000     0.191000000000     0          
C9       C      0.252100000000     0.934030000000     0.191500000000     0          
H6       H      0.253800000000     0.947600000000     0.152100000000     0          
C12      C      0.276800000000     0.017680000000     0.212100000000     0          
H7       H      0.295000000000     0.004500000000     0.186900000000     0          
C13      C      0.276100000000     0.057610000000     0.212000000000     0          
H8       H      0.293600000000     0.071100000000     0.185800000000     0          
C15      C      0.251300000000     0.812080000000     0.940200000000     0          
Zr1      Zr     0.209470000000     0.750000000000     0.850580000000     0          
O5       O      0.272500000000     0.750000000000     0.848000000000     0          
O7       O      0.186400000000     0.750000000000     0.751000000000     0          
C7       C      0.250000000000     0.872900000000     0.250000000000     0          
H5       H      0.250000000000     0.846000000000     0.250000000000     0          
C10      C      0.250000000000     0.954000000000     0.250000000000     0          
C11      C      0.250000000000     0.996900000000     0.250000000000     0          
C14      C      0.250000000000     0.078000000000     0.250000000000     0          
C16      C      0.250000000000     0.121000000000     0.250000000000     0          
Zr2      Zr     0.448930000000     0.041750000000     0.049630000000     0          
O1       O      0.461470000000     0.974940000000     0.182210000000     0          
O3       O      0.426620000000     0.027220000000     0.149290000000     0          
O4       O      0.112140000000     0.025680000000     0.465690000000     0          
O6       O      0.449530000000     0.977810000000     0.049000000000     0          
C1       C      0.416210000000     0.002300000000     0.255800000000     0          
C2       C      0.430560000000     0.981300000000     0.307500000000     0          
H1       H      0.453100000000     0.966900000000     0.301900000000     0          
C3       C      0.412250000000     0.981200000000     0.367600000000     0          
H2       H      0.422600000000     0.967000000000     0.402300000000     0          
C4       C      0.378350000000     0.002400000000     0.376400000000     0          
C5       C      0.363740000000     0.025700000000     0.324100000000     0          
H3       H      0.341800000000     0.040900000000     0.329700000000     0          
C6       C      0.383600000000     0.024900000000     0.264100000000     0          
H4       H      0.374600000000     0.039800000000     0.229200000000     0          
C8       C      0.355610000000     0.001800000000     0.441000000000     0          
C9       C      0.315970000000     0.002100000000     0.441500000000     0          
H6       H      0.302400000000     0.003800000000     0.402100000000     0          
C12      C      0.232320000000     0.026800000000     0.462100000000     0          
H7       H      0.245500000000     0.045000000000     0.436900000000     0          
C13      C      0.192390000000     0.026100000000     0.462000000000     0          
H8       H      0.178900000000     0.043600000000     0.435800000000     0          
C15      C      0.437920000000     0.001300000000     0.190200000000     0          
Zr1      Zr     0.500000000000     0.959470000000     0.100580000000     0          
O5       O      0.500000000000     0.022500000000     0.098000000000     0          
O7       O      0.500000000000     0.936400000000     0.001000000000     0          
C7       C      0.377100000000     0.000000000000     0.500000000000     0          
H5       H      0.404000000000     0.000000000000     0.500000000000     0          
C10      C      0.296000000000     0.000000000000     0.500000000000     0          
C11      C      0.253100000000     0.000000000000     0.500000000000     0          
C14      C      0.172000000000     0.000000000000     0.500000000000     0          
C16      C      0.129000000000     0.000000000000     0.500000000000     0          
Zr2      Zr     0.208250000000     0.198930000000     0.299630000000     0          
O1       O      0.275060000000     0.211470000000     0.432210000000     0          
O3       O      0.222780000000     0.176620000000     0.399290000000     0          
O4       O      0.224320000000     0.862140000000     0.715690000000     0          
O6       O      0.272190000000     0.199530000000     0.299000000000     0          
C1       C      0.247700000000     0.166210000000     0.505800000000     0          
C2       C      0.268700000000     0.180560000000     0.557500000000     0          
H1       H      0.283100000000     0.203100000000     0.551900000000     0          
C3       C      0.268800000000     0.162250000000     0.617600000000     0          
H2       H      0.283000000000     0.172600000000     0.652300000000     0          
C4       C      0.247600000000     0.128350000000     0.626400000000     0          
C5       C      0.224300000000     0.113740000000     0.574100000000     0          
H3       H      0.209100000000     0.091800000000     0.579700000000     0          
C6       C      0.225100000000     0.133600000000     0.514100000000     0          
H4       H      0.210200000000     0.124600000000     0.479200000000     0          
C8       C      0.248200000000     0.105610000000     0.691000000000     0          
C9       C      0.247900000000     0.065970000000     0.691500000000     0          
H6       H      0.246200000000     0.052400000000     0.652100000000     0          
C12      C      0.223200000000     0.982320000000     0.712100000000     0          
H7       H      0.205000000000     0.995500000000     0.686900000000     0          
C13      C      0.223900000000     0.942390000000     0.712000000000     0          
H8       H      0.206400000000     0.928900000000     0.685800000000     0          
C15      C      0.248700000000     0.187920000000     0.440200000000     0          
Zr1      Zr     0.290530000000     0.250000000000     0.350580000000     0          
O5       O      0.227500000000     0.250000000000     0.348000000000     0          
O7       O      0.313600000000     0.250000000000     0.251000000000     0          
C7       C      0.250000000000     0.127100000000     0.750000000000     0          
H5       H      0.250000000000     0.154000000000     0.750000000000     0          
C10      C      0.250000000000     0.046000000000     0.750000000000     0          
C11      C      0.250000000000     0.003100000000     0.750000000000     0          
C14      C      0.250000000000     0.922000000000     0.750000000000     0          
C16      C      0.250000000000     0.879000000000     0.750000000000     0          
Zr2      Zr     0.051070000000     0.041750000000     0.450370000000     0          
O1       O      0.038530000000     0.974940000000     0.317790000000     0          
O3       O      0.073380000000     0.027220000000     0.350710000000     0          
O4       O      0.387860000000     0.025680000000     0.034310000000     0          
O6       O      0.050470000000     0.977810000000     0.451000000000     0          
C1       C      0.083790000000     0.002300000000     0.244200000000     0          
C2       C      0.069440000000     0.981300000000     0.192500000000     0          
H1       H      0.046900000000     0.966900000000     0.198100000000     0          
C3       C      0.087750000000     0.981200000000     0.132400000000     0          
H2       H      0.077400000000     0.967000000000     0.097700000000     0          
C4       C      0.121650000000     0.002400000000     0.123600000000     0          
C5       C      0.136260000000     0.025700000000     0.175900000000     0          
H3       H      0.158200000000     0.040900000000     0.170300000000     0          
C6       C      0.116400000000     0.024900000000     0.235900000000     0          
H4       H      0.125400000000     0.039800000000     0.270800000000     0          
C8       C      0.144390000000     0.001800000000     0.059000000000     0          
C9       C      0.184030000000     0.002100000000     0.058500000000     0          
H6       H      0.197600000000     0.003800000000     0.097900000000     0          
C12      C      0.267680000000     0.026800000000     0.037900000000     0          
H7       H      0.254500000000     0.045000000000     0.063100000000     0          
C13      C      0.307610000000     0.026100000000     0.038000000000     0          
H8       H      0.321100000000     0.043600000000     0.064200000000     0          
C15      C      0.062080000000     0.001300000000     0.309800000000     0          
Zr1      Zr     0.000000000000     0.959470000000     0.399420000000     0          
O5       O      0.000000000000     0.022500000000     0.402000000000     0          
O7       O      0.000000000000     0.936400000000     0.499000000000     0          
Zr2      Zr     0.208250000000     0.801070000000     0.700370000000     0          
O1       O      0.275060000000     0.788530000000     0.567790000000     0          
O3       O      0.222780000000     0.823380000000     0.600710000000     0          
O4       O      0.224320000000     0.137860000000     0.284310000000     0          
O6       O      0.272190000000     0.800470000000     0.701000000000     0          
C1       C      0.247700000000     0.833790000000     0.494200000000     0          
C2       C      0.268700000000     0.819440000000     0.442500000000     0          
H1       H      0.283100000000     0.796900000000     0.448100000000     0          
C3       C      0.268800000000     0.837750000000     0.382400000000     0          
H2       H      0.283000000000     0.827400000000     0.347700000000     0          
C4       C      0.247600000000     0.871650000000     0.373600000000     0          
C5       C      0.224300000000     0.886260000000     0.425900000000     0          
H3       H      0.209100000000     0.908200000000     0.420300000000     0          
C6       C      0.225100000000     0.866400000000     0.485900000000     0          
H4       H      0.210200000000     0.875400000000     0.520800000000     0          
C8       C      0.248200000000     0.894390000000     0.309000000000     0          
C9       C      0.247900000000     0.934030000000     0.308500000000     0          
H6       H      0.246200000000     0.947600000000     0.347900000000     0          
C12      C      0.223200000000     0.017680000000     0.287900000000     0          
H7       H      0.205000000000     0.004500000000     0.313100000000     0          
C13      C      0.223900000000     0.057610000000     0.288000000000     0          
H8       H      0.206400000000     0.071100000000     0.314200000000     0          
C15      C      0.248700000000     0.812080000000     0.559800000000     0          
Zr1      Zr     0.290530000000     0.750000000000     0.649420000000     0          
O5       O      0.227500000000     0.750000000000     0.652000000000     0          
O7       O      0.313600000000     0.750000000000     0.749000000000     0          
Zr2      Zr     0.448930000000     0.958250000000     0.950370000000     0          
O1       O      0.461470000000     0.025060000000     0.817790000000     0          
O3       O      0.426620000000     0.972780000000     0.850710000000     0          
O4       O      0.112140000000     0.974320000000     0.534310000000     0          
O6       O      0.449530000000     0.022190000000     0.951000000000     0          
C1       C      0.416210000000     0.997700000000     0.744200000000     0          
C2       C      0.430560000000     0.018700000000     0.692500000000     0          
H1       H      0.453100000000     0.033100000000     0.698100000000     0          
C3       C      0.412250000000     0.018800000000     0.632400000000     0          
H2       H      0.422600000000     0.033000000000     0.597700000000     0          
C4       C      0.378350000000     0.997600000000     0.623600000000     0          
C5       C      0.363740000000     0.974300000000     0.675900000000     0          
H3       H      0.341800000000     0.959100000000     0.670300000000     0          
C6       C      0.383600000000     0.975100000000     0.735900000000     0          
H4       H      0.374600000000     0.960200000000     0.770800000000     0          
C8       C      0.355610000000     0.998200000000     0.559000000000     0          
C9       C      0.315970000000     0.997900000000     0.558500000000     0          
H6       H      0.302400000000     0.996200000000     0.597900000000     0          
C12      C      0.232320000000     0.973200000000     0.537900000000     0          
H7       H      0.245500000000     0.955000000000     0.563100000000     0          
C13      C      0.192390000000     0.973900000000     0.538000000000     0          
H8       H      0.178900000000     0.956400000000     0.564200000000     0          
C15      C      0.437920000000     0.998700000000     0.809800000000     0          
Zr1      Zr     0.500000000000     0.040530000000     0.899420000000     0          
O5       O      0.500000000000     0.977500000000     0.902000000000     0          
O7       O      0.500000000000     0.063600000000     0.999000000000     0          
Zr2      Zr     0.291750000000     0.198930000000     0.200370000000     0          
O1       O      0.224940000000     0.211470000000     0.067790000000     0          
O3       O      0.277220000000     0.176620000000     0.100710000000     0          
O4       O      0.275680000000     0.862140000000     0.784310000000     0          
O6       O      0.227810000000     0.199530000000     0.201000000000     0          
C1       C      0.252300000000     0.166210000000     0.994200000000     0          
C2       C      0.231300000000     0.180560000000     0.942500000000     0          
H1       H      0.216900000000     0.203100000000     0.948100000000     0          
C3       C      0.231200000000     0.162250000000     0.882400000000     0          
H2       H      0.217000000000     0.172600000000     0.847700000000     0          
C4       C      0.252400000000     0.128350000000     0.873600000000     0          
C5       C      0.275700000000     0.113740000000     0.925900000000     0          
H3       H      0.290900000000     0.091800000000     0.920300000000     0          
C6       C      0.274900000000     0.133600000000     0.985900000000     0          
H4       H      0.289800000000     0.124600000000     0.020800000000     0          
C8       C      0.251800000000     0.105610000000     0.809000000000     0          
C9       C      0.252100000000     0.065970000000     0.808500000000     0          
H6       H      0.253800000000     0.052400000000     0.847900000000     0          
C12      C      0.276800000000     0.982320000000     0.787900000000     0          
H7       H      0.295000000000     0.995500000000     0.813100000000     0          
C13      C      0.276100000000     0.942390000000     0.788000000000     0          
H8       H      0.293600000000     0.928900000000     0.814200000000     0          
C15      C      0.251300000000     0.187920000000     0.059800000000     0          
Zr1      Zr     0.209470000000     0.250000000000     0.149420000000     0          
O5       O      0.272500000000     0.250000000000     0.152000000000     0          
O7       O      0.186400000000     0.250000000000     0.249000000000     0          
Zr2      Zr     0.948930000000     0.041750000000     0.450370000000     0          
O1       O      0.961470000000     0.974940000000     0.317790000000     0          
O3       O      0.926620000000     0.027220000000     0.350710000000     0          
O4       O      0.612140000000     0.025680000000     0.034310000000     0          
O6       O      0.949530000000     0.977810000000     0.451000000000     0          
C1       C      0.916210000000     0.002300000000     0.244200000000     0          
C2       C      0.930560000000     0.981300000000     0.192500000000     0          
H1       H      0.953100000000     0.966900000000     0.198100000000     0          
C3       C      0.912250000000     0.981200000000     0.132400000000     0          
H2       H      0.922600000000     0.967000000000     0.097700000000     0          
C4       C      0.878350000000     0.002400000000     0.123600000000     0          
C5       C      0.863740000000     0.025700000000     0.175900000000     0          
H3       H      0.841800000000     0.040900000000     0.170300000000     0          
C6       C      0.883600000000     0.024900000000     0.235900000000     0          
H4       H      0.874600000000     0.039800000000     0.270800000000     0          
C8       C      0.855610000000     0.001800000000     0.059000000000     0          
C9       C      0.815970000000     0.002100000000     0.058500000000     0          
H6       H      0.802400000000     0.003800000000     0.097900000000     0          
C12      C      0.732320000000     0.026800000000     0.037900000000     0          
H7       H      0.745500000000     0.045000000000     0.063100000000     0          
C13      C      0.692390000000     0.026100000000     0.038000000000     0          
H8       H      0.678900000000     0.043600000000     0.064200000000     0          
C15      C      0.937920000000     0.001300000000     0.309800000000     0          
C7       C      0.877100000000     0.000000000000     0.000000000000     0          
H5       H      0.904000000000     0.000000000000     0.000000000000     0          
C10      C      0.796000000000     0.000000000000     0.000000000000     0          
C11      C      0.753100000000     0.000000000000     0.000000000000     0          
C14      C      0.672000000000     0.000000000000     0.000000000000     0          
C16      C      0.629000000000     0.000000000000     0.000000000000     0          
Zr2      Zr     0.708250000000     0.198930000000     0.200370000000     0          
O1       O      0.775060000000     0.211470000000     0.067790000000     0          
O3       O      0.722780000000     0.176620000000     0.100710000000     0          
O4       O      0.724320000000     0.862140000000     0.784310000000     0          
O6       O      0.772190000000     0.199530000000     0.201000000000     0          
C1       C      0.747700000000     0.166210000000     0.994200000000     0          
C2       C      0.768700000000     0.180560000000     0.942500000000     0          
H1       H      0.783100000000     0.203100000000     0.948100000000     0          
C3       C      0.768800000000     0.162250000000     0.882400000000     0          
H2       H      0.783000000000     0.172600000000     0.847700000000     0          
C4       C      0.747600000000     0.128350000000     0.873600000000     0          
C5       C      0.724300000000     0.113740000000     0.925900000000     0          
H3       H      0.709100000000     0.091800000000     0.920300000000     0          
C6       C      0.725100000000     0.133600000000     0.985900000000     0          
H4       H      0.710200000000     0.124600000000     0.020800000000     0          
C8       C      0.748200000000     0.105610000000     0.809000000000     0          
C9       C      0.747900000000     0.065970000000     0.808500000000     0          
H6       H      0.746200000000     0.052400000000     0.847900000000     0          
C12      C      0.723200000000     0.982320000000     0.787900000000     0          
H7       H      0.705000000000     0.995500000000     0.813100000000     0          
C13      C      0.723900000000     0.942390000000     0.788000000000     0          
H8       H      0.706400000000     0.928900000000     0.814200000000     0          
C15      C      0.748700000000     0.187920000000     0.059800000000     0          
Zr1      Zr     0.790530000000     0.250000000000     0.149420000000     0          
O5       O      0.727500000000     0.250000000000     0.152000000000     0          
O7       O      0.813600000000     0.250000000000     0.249000000000     0          
C7       C      0.750000000000     0.127100000000     0.750000000000     0          
H5       H      0.750000000000     0.154000000000     0.750000000000     0          
C10      C      0.750000000000     0.046000000000     0.750000000000     0          
C11      C      0.750000000000     0.003100000000     0.750000000000     0          
C14      C      0.750000000000     0.922000000000     0.750000000000     0          
C16      C      0.750000000000     0.879000000000     0.750000000000     0          
Zr2      Zr     0.551070000000     0.958250000000     0.950370000000     0          
O1       O      0.538530000000     0.025060000000     0.817790000000     0          
O3       O      0.573380000000     0.972780000000     0.850710000000     0          
O4       O      0.887860000000     0.974320000000     0.534310000000     0          
O6       O      0.550470000000     0.022190000000     0.951000000000     0          
C1       C      0.583790000000     0.997700000000     0.744200000000     0          
C2       C      0.569440000000     0.018700000000     0.692500000000     0          
H1       H      0.546900000000     0.033100000000     0.698100000000     0          
C3       C      0.587750000000     0.018800000000     0.632400000000     0          
H2       H      0.577400000000     0.033000000000     0.597700000000     0          
C4       C      0.621650000000     0.997600000000     0.623600000000     0          
C5       C      0.636260000000     0.974300000000     0.675900000000     0          
H3       H      0.658200000000     0.959100000000     0.670300000000     0          
C6       C      0.616400000000     0.975100000000     0.735900000000     0          
H4       H      0.625400000000     0.960200000000     0.770800000000     0          
C8       C      0.644390000000     0.998200000000     0.559000000000     0          
C9       C      0.684030000000     0.997900000000     0.558500000000     0          
H6       H      0.697600000000     0.996200000000     0.597900000000     0          
C12      C      0.767680000000     0.973200000000     0.537900000000     0          
H7       H      0.754500000000     0.955000000000     0.563100000000     0          
C13      C      0.807610000000     0.973900000000     0.538000000000     0          
H8       H      0.821100000000     0.956400000000     0.564200000000     0          
C15      C      0.562080000000     0.998700000000     0.809800000000     0          
C7       C      0.622900000000     0.000000000000     0.500000000000     0          
H5       H      0.596000000000     0.000000000000     0.500000000000     0          
C10      C      0.704000000000     0.000000000000     0.500000000000     0          
C11      C      0.746900000000     0.000000000000     0.500000000000     0          
C14      C      0.828000000000     0.000000000000     0.500000000000     0          
C16      C      0.871000000000     0.000000000000     0.500000000000     0          
Zr2      Zr     0.791750000000     0.801070000000     0.700370000000     0          
O1       O      0.724940000000     0.788530000000     0.567790000000     0          
O3       O      0.777220000000     0.823380000000     0.600710000000     0          
O4       O      0.775680000000     0.137860000000     0.284310000000     0          
O6       O      0.727810000000     0.800470000000     0.701000000000     0          
C1       C      0.752300000000     0.833790000000     0.494200000000     0          
C2       C      0.731300000000     0.819440000000     0.442500000000     0          
H1       H      0.716900000000     0.796900000000     0.448100000000     0          
C3       C      0.731200000000     0.837750000000     0.382400000000     0          
H2       H      0.717000000000     0.827400000000     0.347700000000     0          
C4       C      0.752400000000     0.871650000000     0.373600000000     0          
C5       C      0.775700000000     0.886260000000     0.425900000000     0          
H3       H      0.790900000000     0.908200000000     0.420300000000     0          
C6       C      0.774900000000     0.866400000000     0.485900000000     0          
H4       H      0.789800000000     0.875400000000     0.520800000000     0          
C8       C      0.751800000000     0.894390000000     0.309000000000     0          
C9       C      0.752100000000     0.934030000000     0.308500000000     0          
H6       H      0.753800000000     0.947600000000     0.347900000000     0          
C12      C      0.776800000000     0.017680000000     0.287900000000     0          
H7       H      0.795000000000     0.004500000000     0.313100000000     0          
C13      C      0.776100000000     0.057610000000     0.288000000000     0          
H8       H      0.793600000000     0.071100000000     0.314200000000     0          
C15      C      0.751300000000     0.812080000000     0.559800000000     0          
Zr1      Zr     0.709470000000     0.750000000000     0.649420000000     0          
O5       O      0.772500000000     0.750000000000     0.652000000000     0          
O7       O      0.686400000000     0.750000000000     0.749000000000     0          
C7       C      0.750000000000     0.872900000000     0.250000000000     0          
H5       H      0.750000000000     0.846000000000     0.250000000000     0          
C10      C      0.750000000000     0.954000000000     0.250000000000     0          
C11      C      0.750000000000     0.996900000000     0.250000000000     0          
C14      C      0.750000000000     0.078000000000     0.250000000000     0          
C16      C      0.750000000000     0.121000000000     0.250000000000     0          
Zr2      Zr     0.948930000000     0.958250000000     0.549630000000     0          
O1       O      0.961470000000     0.025060000000     0.682210000000     0          
O3       O      0.926620000000     0.972780000000     0.649290000000     0          
O4       O      0.612140000000     0.974320000000     0.965690000000     0          
O6       O      0.949530000000     0.022190000000     0.549000000000     0          
C1       C      0.916210000000     0.997700000000     0.755800000000     0          
C2       C      0.930560000000     0.018700000000     0.807500000000     0          
H1       H      0.953100000000     0.033100000000     0.801900000000     0          
C3       C      0.912250000000     0.018800000000     0.867600000000     0          
H2       H      0.922600000000     0.033000000000     0.902300000000     0          
C4       C      0.878350000000     0.997600000000     0.876400000000     0          
C5       C      0.863740000000     0.974300000000     0.824100000000     0          
H3       H      0.841800000000     0.959100000000     0.829700000000     0          
C6       C      0.883600000000     0.975100000000     0.764100000000     0          
H4       H      0.874600000000     0.960200000000     0.729200000000     0          
C8       C      0.855610000000     0.998200000000     0.941000000000     0          
C9       C      0.815970000000     0.997900000000     0.941500000000     0          
H6       H      0.802400000000     0.996200000000     0.902100000000     0          
C12      C      0.732320000000     0.973200000000     0.962100000000     0          
H7       H      0.745500000000     0.955000000000     0.936900000000     0          
C13      C      0.692390000000     0.973900000000     0.962000000000     0          
H8       H      0.678900000000     0.956400000000     0.935800000000     0          
C15      C      0.937920000000     0.998700000000     0.690200000000     0          
Zr2      Zr     0.791750000000     0.198930000000     0.299630000000     0          
O1       O      0.724940000000     0.211470000000     0.432210000000     0          
O3       O      0.777220000000     0.176620000000     0.399290000000     0          
O4       O      0.775680000000     0.862140000000     0.715690000000     0          
O6       O      0.727810000000     0.199530000000     0.299000000000     0          
C1       C      0.752300000000     0.166210000000     0.505800000000     0          
C2       C      0.731300000000     0.180560000000     0.557500000000     0          
H1       H      0.716900000000     0.203100000000     0.551900000000     0          
C3       C      0.731200000000     0.162250000000     0.617600000000     0          
H2       H      0.717000000000     0.172600000000     0.652300000000     0          
C4       C      0.752400000000     0.128350000000     0.626400000000     0          
C5       C      0.775700000000     0.113740000000     0.574100000000     0          
H3       H      0.790900000000     0.091800000000     0.579700000000     0          
C6       C      0.774900000000     0.133600000000     0.514100000000     0          
H4       H      0.789800000000     0.124600000000     0.479200000000     0          
C8       C      0.751800000000     0.105610000000     0.691000000000     0          
C9       C      0.752100000000     0.065970000000     0.691500000000     0          
H6       H      0.753800000000     0.052400000000     0.652100000000     0          
C12      C      0.776800000000     0.982320000000     0.712100000000     0          
H7       H      0.795000000000     0.995500000000     0.686900000000     0          
C13      C      0.776100000000     0.942390000000     0.712000000000     0          
H8       H      0.793600000000     0.928900000000     0.685800000000     0          
C15      C      0.751300000000     0.187920000000     0.440200000000     0          
Zr1      Zr     0.709470000000     0.250000000000     0.350580000000     0          
O5       O      0.772500000000     0.250000000000     0.348000000000     0          
O7       O      0.686400000000     0.250000000000     0.251000000000     0          
Zr2      Zr     0.551070000000     0.041750000000     0.049630000000     0          
O1       O      0.538530000000     0.974940000000     0.182210000000     0          
O3       O      0.573380000000     0.027220000000     0.149290000000     0          
O4       O      0.887860000000     0.025680000000     0.465690000000     0          
O6       O      0.550470000000     0.977810000000     0.049000000000     0          
C1       C      0.583790000000     0.002300000000     0.255800000000     0          
C2       C      0.569440000000     0.981300000000     0.307500000000     0          
H1       H      0.546900000000     0.966900000000     0.301900000000     0          
C3       C      0.587750000000     0.981200000000     0.367600000000     0          
H2       H      0.577400000000     0.967000000000     0.402300000000     0          
C4       C      0.621650000000     0.002400000000     0.376400000000     0          
C5       C      0.636260000000     0.025700000000     0.324100000000     0          
H3       H      0.658200000000     0.040900000000     0.329700000000     0          
C6       C      0.616400000000     0.024900000000     0.264100000000     0          
H4       H      0.625400000000     0.039800000000     0.229200000000     0          
C8       C      0.644390000000     0.001800000000     0.441000000000     0          
C9       C      0.684030000000     0.002100000000     0.441500000000     0          
H6       H      0.697600000000     0.003800000000     0.402100000000     0          
C12      C      0.767680000000     0.026800000000     0.462100000000     0          
H7       H      0.754500000000     0.045000000000     0.436900000000     0          
C13      C      0.807610000000     0.026100000000     0.462000000000     0          
H8       H      0.821100000000     0.043600000000     0.435800000000     0          
C15      C      0.562080000000     0.001300000000     0.190200000000     0          
Zr2      Zr     0.708250000000     0.801070000000     0.799630000000     0          
O1       O      0.775060000000     0.788530000000     0.932210000000     0          
O3       O      0.722780000000     0.823380000000     0.899290000000     0          
O4       O      0.724320000000     0.137860000000     0.215690000000     0          
O6       O      0.772190000000     0.800470000000     0.799000000000     0          
C1       C      0.747700000000     0.833790000000     0.005800000000     0          
C2       C      0.768700000000     0.819440000000     0.057500000000     0          
H1       H      0.783100000000     0.796900000000     0.051900000000     0          
C3       C      0.768800000000     0.837750000000     0.117600000000     0          
H2       H      0.783000000000     0.827400000000     0.152300000000     0          
C4       C      0.747600000000     0.871650000000     0.126400000000     0          
C5       C      0.724300000000     0.886260000000     0.074100000000     0          
H3       H      0.709100000000     0.908200000000     0.079700000000     0          
C6       C      0.725100000000     0.866400000000     0.014100000000     0          
H4       H      0.710200000000     0.875400000000     0.979200000000     0          
C8       C      0.748200000000     0.894390000000     0.191000000000     0          
C9       C      0.747900000000     0.934030000000     0.191500000000     0          
H6       H      0.746200000000     0.947600000000     0.152100000000     0          
C12      C      0.723200000000     0.017680000000     0.212100000000     0          
H7       H      0.705000000000     0.004500000000     0.186900000000     0          
C13      C      0.723900000000     0.057610000000     0.212000000000     0          
H8       H      0.706400000000     0.071100000000     0.185800000000     0          
C15      C      0.748700000000     0.812080000000     0.940200000000     0          
Zr1      Zr     0.790530000000     0.750000000000     0.850580000000     0          
O5       O      0.727500000000     0.750000000000     0.848000000000     0          
O7       O      0.813600000000     0.750000000000     0.751000000000     0          
Zr2      Zr     0.551070000000     0.458250000000     0.049630000000     0          
O1       O      0.538530000000     0.525060000000     0.182210000000     0          
O3       O      0.573380000000     0.472780000000     0.149290000000     0          
O4       O      0.887860000000     0.474320000000     0.465690000000     0          
O6       O      0.550470000000     0.522190000000     0.049000000000     0          
C1       C      0.583790000000     0.497700000000     0.255800000000     0          
C2       C      0.569440000000     0.518700000000     0.307500000000     0          
H1       H      0.546900000000     0.533100000000     0.301900000000     0          
C3       C      0.587750000000     0.518800000000     0.367600000000     0          
H2       H      0.577400000000     0.533000000000     0.402300000000     0          
C4       C      0.621650000000     0.497600000000     0.376400000000     0          
C5       C      0.636260000000     0.474300000000     0.324100000000     0          
H3       H      0.658200000000     0.459100000000     0.329700000000     0          
C6       C      0.616400000000     0.475100000000     0.264100000000     0          
H4       H      0.625400000000     0.460200000000     0.229200000000     0          
C8       C      0.644390000000     0.498200000000     0.441000000000     0          
C9       C      0.684030000000     0.497900000000     0.441500000000     0          
H6       H      0.697600000000     0.496200000000     0.402100000000     0          
C12      C      0.767680000000     0.473200000000     0.462100000000     0          
H7       H      0.754500000000     0.455000000000     0.436900000000     0          
C13      C      0.807610000000     0.473900000000     0.462000000000     0          
H8       H      0.821100000000     0.456400000000     0.435800000000     0          
C15      C      0.562080000000     0.498700000000     0.190200000000     0          
Zr1      Zr     0.500000000000     0.540530000000     0.100580000000     0          
O5       O      0.500000000000     0.477500000000     0.098000000000     0          
O7       O      0.500000000000     0.563600000000     0.001000000000     0          
C7       C      0.622900000000     0.500000000000     0.500000000000     0          
H5       H      0.596000000000     0.500000000000     0.500000000000     0          
C10      C      0.704000000000     0.500000000000     0.500000000000     0          
C11      C      0.746900000000     0.500000000000     0.500000000000     0          
C14      C      0.828000000000     0.500000000000     0.500000000000     0          
C16      C      0.871000000000     0.500000000000     0.500000000000     0          
Zr2      Zr     0.791750000000     0.301070000000     0.299630000000     0          
O1       O      0.724940000000     0.288530000000     0.432210000000     0          
O3       O      0.777220000000     0.323380000000     0.399290000000     0          
O4       O      0.775680000000     0.637860000000     0.715690000000     0          
O6       O      0.727810000000     0.300470000000     0.299000000000     0          
C1       C      0.752300000000     0.333790000000     0.505800000000     0          
C2       C      0.731300000000     0.319440000000     0.557500000000     0          
H1       H      0.716900000000     0.296900000000     0.551900000000     0          
C3       C      0.731200000000     0.337750000000     0.617600000000     0          
H2       H      0.717000000000     0.327400000000     0.652300000000     0          
C4       C      0.752400000000     0.371650000000     0.626400000000     0          
C5       C      0.775700000000     0.386260000000     0.574100000000     0          
H3       H      0.790900000000     0.408200000000     0.579700000000     0          
C6       C      0.774900000000     0.366400000000     0.514100000000     0          
H4       H      0.789800000000     0.375400000000     0.479200000000     0          
C8       C      0.751800000000     0.394390000000     0.691000000000     0          
C9       C      0.752100000000     0.434030000000     0.691500000000     0          
H6       H      0.753800000000     0.447600000000     0.652100000000     0          
C12      C      0.776800000000     0.517680000000     0.712100000000     0          
H7       H      0.795000000000     0.504500000000     0.686900000000     0          
C13      C      0.776100000000     0.557610000000     0.712000000000     0          
H8       H      0.793600000000     0.571100000000     0.685800000000     0          
C15      C      0.751300000000     0.312080000000     0.440200000000     0          
C7       C      0.750000000000     0.372900000000     0.750000000000     0          
H5       H      0.750000000000     0.346000000000     0.750000000000     0          
C10      C      0.750000000000     0.454000000000     0.750000000000     0          
C11      C      0.750000000000     0.496900000000     0.750000000000     0          
C14      C      0.750000000000     0.578000000000     0.750000000000     0          
C16      C      0.750000000000     0.621000000000     0.750000000000     0          
Zr2      Zr     0.948930000000     0.541750000000     0.549630000000     0          
O1       O      0.961470000000     0.474940000000     0.682210000000     0          
O3       O      0.926620000000     0.527220000000     0.649290000000     0          
O4       O      0.612140000000     0.525680000000     0.965690000000     0          
O6       O      0.949530000000     0.477810000000     0.549000000000     0          
C1       C      0.916210000000     0.502300000000     0.755800000000     0          
C2       C      0.930560000000     0.481300000000     0.807500000000     0          
H1       H      0.953100000000     0.466900000000     0.801900000000     0          
C3       C      0.912250000000     0.481200000000     0.867600000000     0          
H2       H      0.922600000000     0.467000000000     0.902300000000     0          
C4       C      0.878350000000     0.502400000000     0.876400000000     0          
C5       C      0.863740000000     0.525700000000     0.824100000000     0          
H3       H      0.841800000000     0.540900000000     0.829700000000     0          
C6       C      0.883600000000     0.524900000000     0.764100000000     0          
H4       H      0.874600000000     0.539800000000     0.729200000000     0          
C8       C      0.855610000000     0.501800000000     0.941000000000     0          
C9       C      0.815970000000     0.502100000000     0.941500000000     0          
H6       H      0.802400000000     0.503800000000     0.902100000000     0          
C12      C      0.732320000000     0.526800000000     0.962100000000     0          
H7       H      0.745500000000     0.545000000000     0.936900000000     0          
C13      C      0.692390000000     0.526100000000     0.962000000000     0          
H8       H      0.678900000000     0.543600000000     0.935800000000     0          
C15      C      0.937920000000     0.501300000000     0.690200000000     0          
Zr1      Zr     0.000000000000     0.459470000000     0.600580000000     0          
O5       O      0.000000000000     0.522500000000     0.598000000000     0          
O7       O      0.000000000000     0.436400000000     0.501000000000     0          
C7       C      0.877100000000     0.500000000000     0.000000000000     0          
H5       H      0.904000000000     0.500000000000     0.000000000000     0          
C10      C      0.796000000000     0.500000000000     0.000000000000     0          
C11      C      0.753100000000     0.500000000000     0.000000000000     0          
C14      C      0.672000000000     0.500000000000     0.000000000000     0          
C16      C      0.629000000000     0.500000000000     0.000000000000     0          
Zr2      Zr     0.708250000000     0.698930000000     0.799630000000     0          
O1       O      0.775060000000     0.711470000000     0.932210000000     0          
O3       O      0.722780000000     0.676620000000     0.899290000000     0          
O4       O      0.724320000000     0.362140000000     0.215690000000     0          
O6       O      0.772190000000     0.699530000000     0.799000000000     0          
C1       C      0.747700000000     0.666210000000     0.005800000000     0          
C2       C      0.768700000000     0.680560000000     0.057500000000     0          
H1       H      0.783100000000     0.703100000000     0.051900000000     0          
C3       C      0.768800000000     0.662250000000     0.117600000000     0          
H2       H      0.783000000000     0.672600000000     0.152300000000     0          
C4       C      0.747600000000     0.628350000000     0.126400000000     0          
C5       C      0.724300000000     0.613740000000     0.074100000000     0          
H3       H      0.709100000000     0.591800000000     0.079700000000     0          
C6       C      0.725100000000     0.633600000000     0.014100000000     0          
H4       H      0.710200000000     0.624600000000     0.979200000000     0          
C8       C      0.748200000000     0.605610000000     0.191000000000     0          
C9       C      0.747900000000     0.565970000000     0.191500000000     0          
H6       H      0.746200000000     0.552400000000     0.152100000000     0          
C12      C      0.723200000000     0.482320000000     0.212100000000     0          
H7       H      0.705000000000     0.495500000000     0.186900000000     0          
C13      C      0.723900000000     0.442390000000     0.212000000000     0          
H8       H      0.706400000000     0.428900000000     0.185800000000     0          
C15      C      0.748700000000     0.687920000000     0.940200000000     0          
C7       C      0.750000000000     0.627100000000     0.250000000000     0          
H5       H      0.750000000000     0.654000000000     0.250000000000     0          
C10      C      0.750000000000     0.546000000000     0.250000000000     0          
C11      C      0.750000000000     0.503100000000     0.250000000000     0          
C14      C      0.750000000000     0.422000000000     0.250000000000     0          
C16      C      0.750000000000     0.379000000000     0.250000000000     0          
Zr2      Zr     0.551070000000     0.541750000000     0.950370000000     0          
O1       O      0.538530000000     0.474940000000     0.817790000000     0          
O3       O      0.573380000000     0.527220000000     0.850710000000     0          
O4       O      0.887860000000     0.525680000000     0.534310000000     0          
O6       O      0.550470000000     0.477810000000     0.951000000000     0          
C1       C      0.583790000000     0.502300000000     0.744200000000     0          
C2       C      0.569440000000     0.481300000000     0.692500000000     0          
H1       H      0.546900000000     0.466900000000     0.698100000000     0          
C3       C      0.587750000000     0.481200000000     0.632400000000     0          
H2       H      0.577400000000     0.467000000000     0.597700000000     0          
C4       C      0.621650000000     0.502400000000     0.623600000000     0          
C5       C      0.636260000000     0.525700000000     0.675900000000     0          
H3       H      0.658200000000     0.540900000000     0.670300000000     0          
C6       C      0.616400000000     0.524900000000     0.735900000000     0          
H4       H      0.625400000000     0.539800000000     0.770800000000     0          
C8       C      0.644390000000     0.501800000000     0.559000000000     0          
C9       C      0.684030000000     0.502100000000     0.558500000000     0          
H6       H      0.697600000000     0.503800000000     0.597900000000     0          
C12      C      0.767680000000     0.526800000000     0.537900000000     0          
H7       H      0.754500000000     0.545000000000     0.563100000000     0          
C13      C      0.807610000000     0.526100000000     0.538000000000     0          
H8       H      0.821100000000     0.543600000000     0.564200000000     0          
C15      C      0.562080000000     0.501300000000     0.809800000000     0          
Zr1      Zr     0.500000000000     0.459470000000     0.899420000000     0          
O5       O      0.500000000000     0.522500000000     0.902000000000     0          
O7       O      0.500000000000     0.436400000000     0.999000000000     0          
Zr2      Zr     0.708250000000     0.301070000000     0.200370000000     0          
O1       O      0.775060000000     0.288530000000     0.067790000000     0          
O3       O      0.722780000000     0.323380000000     0.100710000000     0          
O4       O      0.724320000000     0.637860000000     0.784310000000     0          
O6       O      0.772190000000     0.300470000000     0.201000000000     0          
C1       C      0.747700000000     0.333790000000     0.994200000000     0          
C2       C      0.768700000000     0.319440000000     0.942500000000     0          
H1       H      0.783100000000     0.296900000000     0.948100000000     0          
C3       C      0.768800000000     0.337750000000     0.882400000000     0          
H2       H      0.783000000000     0.327400000000     0.847700000000     0          
C4       C      0.747600000000     0.371650000000     0.873600000000     0          
C5       C      0.724300000000     0.386260000000     0.925900000000     0          
H3       H      0.709100000000     0.408200000000     0.920300000000     0          
C6       C      0.725100000000     0.366400000000     0.985900000000     0          
H4       H      0.710200000000     0.375400000000     0.020800000000     0          
C8       C      0.748200000000     0.394390000000     0.809000000000     0          
C9       C      0.747900000000     0.434030000000     0.808500000000     0          
H6       H      0.746200000000     0.447600000000     0.847900000000     0          
C12      C      0.723200000000     0.517680000000     0.787900000000     0          
H7       H      0.705000000000     0.504500000000     0.813100000000     0          
C13      C      0.723900000000     0.557610000000     0.788000000000     0          
H8       H      0.706400000000     0.571100000000     0.814200000000     0          
C15      C      0.748700000000     0.312080000000     0.059800000000     0          
Zr2      Zr     0.948930000000     0.458250000000     0.450370000000     0          
O1       O      0.961470000000     0.525060000000     0.317790000000     0          
O3       O      0.926620000000     0.472780000000     0.350710000000     0          
O4       O      0.612140000000     0.474320000000     0.034310000000     0          
O6       O      0.949530000000     0.522190000000     0.451000000000     0          
C1       C      0.916210000000     0.497700000000     0.244200000000     0          
C2       C      0.930560000000     0.518700000000     0.192500000000     0          
H1       H      0.953100000000     0.533100000000     0.198100000000     0          
C3       C      0.912250000000     0.518800000000     0.132400000000     0          
H2       H      0.922600000000     0.533000000000     0.097700000000     0          
C4       C      0.878350000000     0.497600000000     0.123600000000     0          
C5       C      0.863740000000     0.474300000000     0.175900000000     0          
H3       H      0.841800000000     0.459100000000     0.170300000000     0          
C6       C      0.883600000000     0.475100000000     0.235900000000     0          
H4       H      0.874600000000     0.460200000000     0.270800000000     0          
C8       C      0.855610000000     0.498200000000     0.059000000000     0          
C9       C      0.815970000000     0.497900000000     0.058500000000     0          
H6       H      0.802400000000     0.496200000000     0.097900000000     0          
C12      C      0.732320000000     0.473200000000     0.037900000000     0          
H7       H      0.745500000000     0.455000000000     0.063100000000     0          
C13      C      0.692390000000     0.473900000000     0.038000000000     0          
H8       H      0.678900000000     0.456400000000     0.064200000000     0          
C15      C      0.937920000000     0.498700000000     0.309800000000     0          
Zr1      Zr     0.000000000000     0.540530000000     0.399420000000     0          
O5       O      0.000000000000     0.477500000000     0.402000000000     0          
O7       O      0.000000000000     0.563600000000     0.499000000000     0          
Zr2      Zr     0.791750000000     0.698930000000     0.700370000000     0          
O1       O      0.724940000000     0.711470000000     0.567790000000     0          
O3       O      0.777220000000     0.676620000000     0.600710000000     0          
O4       O      0.775680000000     0.362140000000     0.284310000000     0          
O6       O      0.727810000000     0.699530000000     0.701000000000     0          
C1       C      0.752300000000     0.666210000000     0.494200000000     0          
C2       C      0.731300000000     0.680560000000     0.442500000000     0          
H1       H      0.716900000000     0.703100000000     0.448100000000     0          
C3       C      0.731200000000     0.662250000000     0.382400000000     0          
H2       H      0.717000000000     0.672600000000     0.347700000000     0          
C4       C      0.752400000000     0.628350000000     0.373600000000     0          
C5       C      0.775700000000     0.613740000000     0.425900000000     0          
H3       H      0.790900000000     0.591800000000     0.420300000000     0          
C6       C      0.774900000000     0.633600000000     0.485900000000     0          
H4       H      0.789800000000     0.624600000000     0.520800000000     0          
C8       C      0.751800000000     0.605610000000     0.309000000000     0          
C9       C      0.752100000000     0.565970000000     0.308500000000     0          
H6       H      0.753800000000     0.552400000000     0.347900000000     0          
C12      C      0.776800000000     0.482320000000     0.287900000000     0          
H7       H      0.795000000000     0.495500000000     0.313100000000     0          
C13      C      0.776100000000     0.442390000000     0.288000000000     0          
H8       H      0.793600000000     0.428900000000     0.314200000000     0          
C15      C      0.751300000000     0.687920000000     0.559800000000     0          
Zr2      Zr     0.448930000000     0.541750000000     0.950370000000     0          
O1       O      0.461470000000     0.474940000000     0.817790000000     0          
O3       O      0.426620000000     0.527220000000     0.850710000000     0          
O4       O      0.112140000000     0.525680000000     0.534310000000     0          
O6       O      0.449530000000     0.477810000000     0.951000000000     0          
C1       C      0.416210000000     0.502300000000     0.744200000000     0          
C2       C      0.430560000000     0.481300000000     0.692500000000     0          
H1       H      0.453100000000     0.466900000000     0.698100000000     0          
C3       C      0.412250000000     0.481200000000     0.632400000000     0          
H2       H      0.422600000000     0.467000000000     0.597700000000     0          
C4       C      0.378350000000     0.502400000000     0.623600000000     0          
C5       C      0.363740000000     0.525700000000     0.675900000000     0          
H3       H      0.341800000000     0.540900000000     0.670300000000     0          
C6       C      0.383600000000     0.524900000000     0.735900000000     0          
H4       H      0.374600000000     0.539800000000     0.770800000000     0          
C8       C      0.355610000000     0.501800000000     0.559000000000     0          
C9       C      0.315970000000     0.502100000000     0.558500000000     0          
H6       H      0.302400000000     0.503800000000     0.597900000000     0          
C12      C      0.232320000000     0.526800000000     0.537900000000     0          
H7       H      0.245500000000     0.545000000000     0.563100000000     0          
C13      C      0.192390000000     0.526100000000     0.538000000000     0          
H8       H      0.178900000000     0.543600000000     0.564200000000     0          
C15      C      0.437920000000     0.501300000000     0.809800000000     0          
C7       C      0.377100000000     0.500000000000     0.500000000000     0          
H5       H      0.404000000000     0.500000000000     0.500000000000     0          
C10      C      0.296000000000     0.500000000000     0.500000000000     0          
C11      C      0.253100000000     0.500000000000     0.500000000000     0          
C14      C      0.172000000000     0.500000000000     0.500000000000     0          
C16      C      0.129000000000     0.500000000000     0.500000000000     0          
Zr2      Zr     0.208250000000     0.698930000000     0.700370000000     0          
O1       O      0.275060000000     0.711470000000     0.567790000000     0          
O3       O      0.222780000000     0.676620000000     0.600710000000     0          
O4       O      0.224320000000     0.362140000000     0.284310000000     0          
O6       O      0.272190000000     0.699530000000     0.701000000000     0          
C1       C      0.247700000000     0.666210000000     0.494200000000     0          
C2       C      0.268700000000     0.680560000000     0.442500000000     0          
H1       H      0.283100000000     0.703100000000     0.448100000000     0          
C3       C      0.268800000000     0.662250000000     0.382400000000     0          
H2       H      0.283000000000     0.672600000000     0.347700000000     0          
C4       C      0.247600000000     0.628350000000     0.373600000000     0          
C5       C      0.224300000000     0.613740000000     0.425900000000     0          
H3       H      0.209100000000     0.591800000000     0.420300000000     0          
C6       C      0.225100000000     0.633600000000     0.485900000000     0          
H4       H      0.210200000000     0.624600000000     0.520800000000     0          
C8       C      0.248200000000     0.605610000000     0.309000000000     0          
C9       C      0.247900000000     0.565970000000     0.308500000000     0          
H6       H      0.246200000000     0.552400000000     0.347900000000     0          
C12      C      0.223200000000     0.482320000000     0.287900000000     0          
H7       H      0.205000000000     0.495500000000     0.313100000000     0          
C13      C      0.223900000000     0.442390000000     0.288000000000     0          
H8       H      0.206400000000     0.428900000000     0.314200000000     0          
C15      C      0.248700000000     0.687920000000     0.559800000000     0          
C7       C      0.250000000000     0.627100000000     0.250000000000     0          
H5       H      0.250000000000     0.654000000000     0.250000000000     0          
C10      C      0.250000000000     0.546000000000     0.250000000000     0          
C11      C      0.250000000000     0.503100000000     0.250000000000     0          
C14      C      0.250000000000     0.422000000000     0.250000000000     0          
C16      C      0.250000000000     0.379000000000     0.250000000000     0          
Zr2      Zr     0.051070000000     0.458250000000     0.450370000000     0          
O1       O      0.038530000000     0.525060000000     0.317790000000     0          
O3       O      0.073380000000     0.472780000000     0.350710000000     0          
O4       O      0.387860000000     0.474320000000     0.034310000000     0          
O6       O      0.050470000000     0.522190000000     0.451000000000     0          
C1       C      0.083790000000     0.497700000000     0.244200000000     0          
C2       C      0.069440000000     0.518700000000     0.192500000000     0          
H1       H      0.046900000000     0.533100000000     0.198100000000     0          
C3       C      0.087750000000     0.518800000000     0.132400000000     0          
H2       H      0.077400000000     0.533000000000     0.097700000000     0          
C4       C      0.121650000000     0.497600000000     0.123600000000     0          
C5       C      0.136260000000     0.474300000000     0.175900000000     0          
H3       H      0.158200000000     0.459100000000     0.170300000000     0          
C6       C      0.116400000000     0.475100000000     0.235900000000     0          
H4       H      0.125400000000     0.460200000000     0.270800000000     0          
C8       C      0.144390000000     0.498200000000     0.059000000000     0          
C9       C      0.184030000000     0.497900000000     0.058500000000     0          
H6       H      0.197600000000     0.496200000000     0.097900000000     0          
C12      C      0.267680000000     0.473200000000     0.037900000000     0          
H7       H      0.254500000000     0.455000000000     0.063100000000     0          
C13      C      0.307610000000     0.473900000000     0.038000000000     0          
H8       H      0.321100000000     0.456400000000     0.064200000000     0          
C15      C      0.062080000000     0.498700000000     0.309800000000     0          
C7       C      0.122900000000     0.500000000000     0.000000000000     0          
H5       H      0.096000000000     0.500000000000     0.000000000000     0          
C10      C      0.204000000000     0.500000000000     0.000000000000     0          
C11      C      0.246900000000     0.500000000000     0.000000000000     0          
C14      C      0.328000000000     0.500000000000     0.000000000000     0          
C16      C      0.371000000000     0.500000000000     0.000000000000     0          
Zr2      Zr     0.291750000000     0.301070000000     0.200370000000     0          
O1       O      0.224940000000     0.288530000000     0.067790000000     0          
O3       O      0.277220000000     0.323380000000     0.100710000000     0          
O4       O      0.275680000000     0.637860000000     0.784310000000     0          
O6       O      0.227810000000     0.300470000000     0.201000000000     0          
C1       C      0.252300000000     0.333790000000     0.994200000000     0          
C2       C      0.231300000000     0.319440000000     0.942500000000     0          
H1       H      0.216900000000     0.296900000000     0.948100000000     0          
C3       C      0.231200000000     0.337750000000     0.882400000000     0          
H2       H      0.217000000000     0.327400000000     0.847700000000     0          
C4       C      0.252400000000     0.371650000000     0.873600000000     0          
C5       C      0.275700000000     0.386260000000     0.925900000000     0          
H3       H      0.290900000000     0.408200000000     0.920300000000     0          
C6       C      0.274900000000     0.366400000000     0.985900000000     0          
H4       H      0.289800000000     0.375400000000     0.020800000000     0          
C8       C      0.251800000000     0.394390000000     0.809000000000     0          
C9       C      0.252100000000     0.434030000000     0.808500000000     0          
H6       H      0.253800000000     0.447600000000     0.847900000000     0          
C12      C      0.276800000000     0.517680000000     0.787900000000     0          
H7       H      0.295000000000     0.504500000000     0.813100000000     0          
C13      C      0.276100000000     0.557610000000     0.788000000000     0          
H8       H      0.293600000000     0.571100000000     0.814200000000     0          
C15      C      0.251300000000     0.312080000000     0.059800000000     0          
C7       C      0.250000000000     0.372900000000     0.750000000000     0          
H5       H      0.250000000000     0.346000000000     0.750000000000     0          
C10      C      0.250000000000     0.454000000000     0.750000000000     0          
C11      C      0.250000000000     0.496900000000     0.750000000000     0          
C14      C      0.250000000000     0.578000000000     0.750000000000     0          
C16      C      0.250000000000     0.621000000000     0.750000000000     0          
Zr2      Zr     0.448930000000     0.458250000000     0.049630000000     0          
O1       O      0.461470000000     0.525060000000     0.182210000000     0          
O3       O      0.426620000000     0.472780000000     0.149290000000     0          
O4       O      0.112140000000     0.474320000000     0.465690000000     0          
O6       O      0.449530000000     0.522190000000     0.049000000000     0          
C1       C      0.416210000000     0.497700000000     0.255800000000     0          
C2       C      0.430560000000     0.518700000000     0.307500000000     0          
H1       H      0.453100000000     0.533100000000     0.301900000000     0          
C3       C      0.412250000000     0.518800000000     0.367600000000     0          
H2       H      0.422600000000     0.533000000000     0.402300000000     0          
C4       C      0.378350000000     0.497600000000     0.376400000000     0          
C5       C      0.363740000000     0.474300000000     0.324100000000     0          
H3       H      0.341800000000     0.459100000000     0.329700000000     0          
C6       C      0.383600000000     0.475100000000     0.264100000000     0          
H4       H      0.374600000000     0.460200000000     0.229200000000     0          
C8       C      0.355610000000     0.498200000000     0.441000000000     0          
C9       C      0.315970000000     0.497900000000     0.441500000000     0          
H6       H      0.302400000000     0.496200000000     0.402100000000     0          
C12      C      0.232320000000     0.473200000000     0.462100000000     0          
H7       H      0.245500000000     0.455000000000     0.436900000000     0          
C13      C      0.192390000000     0.473900000000     0.462000000000     0          
H8       H      0.178900000000     0.456400000000     0.435800000000     0          
C15      C      0.437920000000     0.498700000000     0.190200000000     0          
Zr2      Zr     0.291750000000     0.698930000000     0.799630000000     0          
O1       O      0.224940000000     0.711470000000     0.932210000000     0          
O3       O      0.277220000000     0.676620000000     0.899290000000     0          
O4       O      0.275680000000     0.362140000000     0.215690000000     0          
O6       O      0.227810000000     0.699530000000     0.799000000000     0          
C1       C      0.252300000000     0.666210000000     0.005800000000     0          
C2       C      0.231300000000     0.680560000000     0.057500000000     0          
H1       H      0.216900000000     0.703100000000     0.051900000000     0          
C3       C      0.231200000000     0.662250000000     0.117600000000     0          
H2       H      0.217000000000     0.672600000000     0.152300000000     0          
C4       C      0.252400000000     0.628350000000     0.126400000000     0          
C5       C      0.275700000000     0.613740000000     0.074100000000     0          
H3       H      0.290900000000     0.591800000000     0.079700000000     0          
C6       C      0.274900000000     0.633600000000     0.014100000000     0          
H4       H      0.289800000000     0.624600000000     0.979200000000     0          
C8       C      0.251800000000     0.605610000000     0.191000000000     0          
C9       C      0.252100000000     0.565970000000     0.191500000000     0          
H6       H      0.253800000000     0.552400000000     0.152100000000     0          
C12      C      0.276800000000     0.482320000000     0.212100000000     0          
H7       H      0.295000000000     0.495500000000     0.186900000000     0          
C13      C      0.276100000000     0.442390000000     0.212000000000     0          
H8       H      0.293600000000     0.428900000000     0.185800000000     0          
C15      C      0.251300000000     0.687920000000     0.940200000000     0          
Zr2      Zr     0.051070000000     0.541750000000     0.549630000000     0          
O1       O      0.038530000000     0.474940000000     0.682210000000     0          
O3       O      0.073380000000     0.527220000000     0.649290000000     0          
O4       O      0.387860000000     0.525680000000     0.965690000000     0          
O6       O      0.050470000000     0.477810000000     0.549000000000     0          
C1       C      0.083790000000     0.502300000000     0.755800000000     0          
C2       C      0.069440000000     0.481300000000     0.807500000000     0          
H1       H      0.046900000000     0.466900000000     0.801900000000     0          
C3       C      0.087750000000     0.481200000000     0.867600000000     0          
H2       H      0.077400000000     0.467000000000     0.902300000000     0          
C4       C      0.121650000000     0.502400000000     0.876400000000     0          
C5       C      0.136260000000     0.525700000000     0.824100000000     0          
H3       H      0.158200000000     0.540900000000     0.829700000000     0          
C6       C      0.116400000000     0.524900000000     0.764100000000     0          
H4       H      0.125400000000     0.539800000000     0.729200000000     0          
C8       C      0.144390000000     0.501800000000     0.941000000000     0          
C9       C      0.184030000000     0.502100000000     0.941500000000     0          
H6       H      0.197600000000     0.503800000000     0.902100000000     0          
C12      C      0.267680000000     0.526800000000     0.962100000000     0          
H7       H      0.254500000000     0.545000000000     0.936900000000     0          
C13      C      0.307610000000     0.526100000000     0.962000000000     0          
H8       H      0.321100000000     0.543600000000     0.935800000000     0          
C15      C      0.062080000000     0.501300000000     0.690200000000     0          
Zr2      Zr     0.208250000000     0.301070000000     0.299630000000     0          
O1       O      0.275060000000     0.288530000000     0.432210000000     0          
O3       O      0.222780000000     0.323380000000     0.399290000000     0          
O4       O      0.224320000000     0.637860000000     0.715690000000     0          
O6       O      0.272190000000     0.300470000000     0.299000000000     0          
C1       C      0.247700000000     0.333790000000     0.505800000000     0          
C2       C      0.268700000000     0.319440000000     0.557500000000     0          
H1       H      0.283100000000     0.296900000000     0.551900000000     0          
C3       C      0.268800000000     0.337750000000     0.617600000000     0          
H2       H      0.283000000000     0.327400000000     0.652300000000     0          
C4       C      0.247600000000     0.371650000000     0.626400000000     0          
C5       C      0.224300000000     0.386260000000     0.574100000000     0          
H3       H      0.209100000000     0.408200000000     0.579700000000     0          
C6       C      0.225100000000     0.366400000000     0.514100000000     0          
H4       H      0.210200000000     0.375400000000     0.479200000000     0          
C8       C      0.248200000000     0.394390000000     0.691000000000     0          
C9       C      0.247900000000     0.434030000000     0.691500000000     0          
H6       H      0.246200000000     0.447600000000     0.652100000000     0          
C12      C      0.223200000000     0.517680000000     0.712100000000     0          
H7       H      0.205000000000     0.504500000000     0.686900000000     0          
C13      C      0.223900000000     0.557610000000     0.712000000000     0          
H8       H      0.206400000000     0.571100000000     0.685800000000     0          
C15      C      0.248700000000     0.312080000000     0.440200000000     0          


