data_QURPAW

_audit_creation_method RASPA-1.0
_audit_creation_date 2020-11-2
_audit_author_name 'Rocio Bueno-Perez'

_cell_length_a    26.0682
_cell_length_b    26.0682
_cell_length_c    26.0682
_cell_angle_alpha 90
_cell_angle_beta  90
_cell_angle_gamma 90
_cell_volume      17714.7

_symmetry_cell_setting          cubic
_symmetry_space_group_name_Hall 'P 1'
_symmetry_space_group_name_H-M  'P 1'
_symmetry_Int_Tables_number     1

_symmetry_equiv_pos_as_xyz 'x,y,z'

loop_
_atom_site_label
_atom_site_type_symbol
_atom_site_fract_x
_atom_site_fract_y
_atom_site_fract_z
_atom_site_charge
Zr1      Zr     0.591860000000     0.984360000000     0.481230000000     0          
O3       O      0.618690000000     0.993510000000     0.400670000000     0          
O4       O      0.548920000000     0.015480000000     0.352820000000     0          
O5       O      0.906530000000     0.038500000000     0.116580000000     0          
O6       O      0.855100000000     0.037010000000     0.045670000000     0          
C1       C      0.698770000000     0.037100000000     0.236490000000     0          
C2       C      0.645960000000     0.042000000000     0.227140000000     0          
H1       H      0.634200000000     0.051600000000     0.194900000000     0          
C3       C      0.611480000000     0.032300000000     0.266530000000     0          
H2       H      0.576400000000     0.035500000000     0.261100000000     0          
C4       C      0.630640000000     0.017800000000     0.314630000000     0          
C5       C      0.683800000000     0.015900000000     0.321880000000     0          
H3       H      0.696400000000     0.007700000000     0.354200000000     0          
C6       C      0.738310000000     0.042400000000     0.196860000000     0          
C7       C      0.728310000000     0.053400000000     0.145560000000     0          
H4       H      0.695200000000     0.061800000000     0.135200000000     0          
C8       C      0.767860000000     0.051800000000     0.109930000000     0          
H5       H      0.761500000000     0.055700000000     0.075000000000     0          
C9       C      0.817820000000     0.043990000000     0.128490000000     0          
C10      C      0.825350000000     0.036200000000     0.180820000000     0          
H6       H      0.858700000000     0.031900000000     0.192800000000     0          
C11      C      0.596550000000     0.008030000000     0.359590000000     0          
C12      C      0.863160000000     0.039800000000     0.093740000000     0          
N1       N      0.717440000000     0.025600000000     0.283810000000     0          
N2       N      0.786520000000     0.034800000000     0.214660000000     0          
Cr1      Cr     0.797410000000     0.022160000000     0.293680000000     0          
C13      C      0.867500000000     0.013600000000     0.292500000000     0          
C14      C      0.798400000000     0.015500000000     0.364000000000     0          
C15      C      0.804100000000     0.089600000000     0.306700000000     0          
C16      C      0.799300000000     0.954300000000     0.286600000000     0          
O7       O      0.911800000000     0.007200000000     0.293600000000     0          
O8       O      0.799500000000     0.011600000000     0.408800000000     0          
O9       O      0.808600000000     0.136600000000     0.321000000000     0          
O10      O      0.806400000000     0.907500000000     0.287200000000     0          
O12?     O      0.532430000000     0.949190000000     0.428690000000     0          
O1       O      0.553450000000     0.053450000000     0.446550000000     0          
N3       N      0.618500000000     0.118500000000     0.381500000000     0          
C17      C      0.644400000000     0.144400000000     0.355600000000     0          
C18      C      0.675900000000     0.175900000000     0.324100000000     0          
Zr1      Zr     0.908140000000     0.015640000000     0.981230000000     0          
O3       O      0.881310000000     0.006490000000     0.900670000000     0          
O4       O      0.951080000000     0.984520000000     0.852820000000     0          
O5       O      0.593470000000     0.961500000000     0.616580000000     0          
O6       O      0.644900000000     0.962990000000     0.545670000000     0          
C1       C      0.801230000000     0.962900000000     0.736490000000     0          
C2       C      0.854040000000     0.958000000000     0.727140000000     0          
H1       H      0.865800000000     0.948400000000     0.694900000000     0          
C3       C      0.888520000000     0.967700000000     0.766530000000     0          
H2       H      0.923600000000     0.964500000000     0.761100000000     0          
C4       C      0.869360000000     0.982200000000     0.814630000000     0          
C5       C      0.816200000000     0.984100000000     0.821880000000     0          
H3       H      0.803600000000     0.992300000000     0.854200000000     0          
C6       C      0.761690000000     0.957600000000     0.696860000000     0          
C7       C      0.771690000000     0.946600000000     0.645560000000     0          
H4       H      0.804800000000     0.938200000000     0.635200000000     0          
C8       C      0.732140000000     0.948200000000     0.609930000000     0          
H5       H      0.738500000000     0.944300000000     0.575000000000     0          
C9       C      0.682180000000     0.956010000000     0.628490000000     0          
C10      C      0.674650000000     0.963800000000     0.680820000000     0          
H6       H      0.641300000000     0.968100000000     0.692800000000     0          
C11      C      0.903450000000     0.991970000000     0.859590000000     0          
C12      C      0.636840000000     0.960200000000     0.593740000000     0          
N1       N      0.782560000000     0.974400000000     0.783810000000     0          
N2       N      0.713480000000     0.965200000000     0.714660000000     0          
Cr1      Cr     0.702590000000     0.977840000000     0.793680000000     0          
C13      C      0.632500000000     0.986400000000     0.792500000000     0          
C14      C      0.701600000000     0.984500000000     0.864000000000     0          
C15      C      0.695900000000     0.910400000000     0.806700000000     0          
C16      C      0.700700000000     0.045700000000     0.786600000000     0          
O7       O      0.588200000000     0.992800000000     0.793600000000     0          
O8       O      0.700500000000     0.988400000000     0.908800000000     0          
O9       O      0.691400000000     0.863400000000     0.821000000000     0          
O10      O      0.693600000000     0.092500000000     0.787200000000     0          
O12?     O      0.967570000000     0.050810000000     0.928690000000     0          
O1       O      0.946550000000     0.946550000000     0.946550000000     0          
N3       N      0.881500000000     0.881500000000     0.881500000000     0          
C17      C      0.855600000000     0.855600000000     0.855600000000     0          
C18      C      0.824100000000     0.824100000000     0.824100000000     0          
Zr1      Zr     0.091860000000     0.515640000000     0.518770000000     0          
O3       O      0.118690000000     0.506490000000     0.599330000000     0          
O4       O      0.048920000000     0.484520000000     0.647180000000     0          
O5       O      0.406530000000     0.461500000000     0.883420000000     0          
O6       O      0.355100000000     0.462990000000     0.954330000000     0          
C1       C      0.198770000000     0.462900000000     0.763510000000     0          
C2       C      0.145960000000     0.458000000000     0.772860000000     0          
H1       H      0.134200000000     0.448400000000     0.805100000000     0          
C3       C      0.111480000000     0.467700000000     0.733470000000     0          
H2       H      0.076400000000     0.464500000000     0.738900000000     0          
C4       C      0.130640000000     0.482200000000     0.685370000000     0          
C5       C      0.183800000000     0.484100000000     0.678120000000     0          
H3       H      0.196400000000     0.492300000000     0.645800000000     0          
C6       C      0.238310000000     0.457600000000     0.803140000000     0          
C7       C      0.228310000000     0.446600000000     0.854440000000     0          
H4       H      0.195200000000     0.438200000000     0.864800000000     0          
C8       C      0.267860000000     0.448200000000     0.890070000000     0          
H5       H      0.261500000000     0.444300000000     0.925000000000     0          
C9       C      0.317820000000     0.456010000000     0.871510000000     0          
C10      C      0.325350000000     0.463800000000     0.819180000000     0          
H6       H      0.358700000000     0.468100000000     0.807200000000     0          
C11      C      0.096550000000     0.491970000000     0.640410000000     0          
C12      C      0.363160000000     0.460200000000     0.906260000000     0          
N1       N      0.217440000000     0.474400000000     0.716190000000     0          
N2       N      0.286520000000     0.465200000000     0.785340000000     0          
Cr1      Cr     0.297410000000     0.477840000000     0.706320000000     0          
C13      C      0.367500000000     0.486400000000     0.707500000000     0          
C14      C      0.298400000000     0.484500000000     0.636000000000     0          
C15      C      0.304100000000     0.410400000000     0.693300000000     0          
C16      C      0.299300000000     0.545700000000     0.713400000000     0          
O7       O      0.411800000000     0.492800000000     0.706400000000     0          
O8       O      0.299500000000     0.488400000000     0.591200000000     0          
O9       O      0.308600000000     0.363400000000     0.679000000000     0          
O10      O      0.306400000000     0.592500000000     0.712800000000     0          
O12?     O      0.032430000000     0.550810000000     0.571310000000     0          
O1       O      0.053450000000     0.446550000000     0.553450000000     0          
N3       N      0.118500000000     0.381500000000     0.618500000000     0          
C17      C      0.144400000000     0.355600000000     0.644400000000     0          
C18      C      0.175900000000     0.324100000000     0.675900000000     0          
Zr1      Zr     0.408140000000     0.484360000000     0.018770000000     0          
O3       O      0.381310000000     0.493510000000     0.099330000000     0          
O4       O      0.451080000000     0.515480000000     0.147180000000     0          
O5       O      0.093470000000     0.538500000000     0.383420000000     0          
O6       O      0.144900000000     0.537010000000     0.454330000000     0          
C1       C      0.301230000000     0.537100000000     0.263510000000     0          
C2       C      0.354040000000     0.542000000000     0.272860000000     0          
H1       H      0.365800000000     0.551600000000     0.305100000000     0          
C3       C      0.388520000000     0.532300000000     0.233470000000     0          
H2       H      0.423600000000     0.535500000000     0.238900000000     0          
C4       C      0.369360000000     0.517800000000     0.185370000000     0          
C5       C      0.316200000000     0.515900000000     0.178120000000     0          
H3       H      0.303600000000     0.507700000000     0.145800000000     0          
C6       C      0.261690000000     0.542400000000     0.303140000000     0          
C7       C      0.271690000000     0.553400000000     0.354440000000     0          
H4       H      0.304800000000     0.561800000000     0.364800000000     0          
C8       C      0.232140000000     0.551800000000     0.390070000000     0          
H5       H      0.238500000000     0.555700000000     0.425000000000     0          
C9       C      0.182180000000     0.543990000000     0.371510000000     0          
C10      C      0.174650000000     0.536200000000     0.319180000000     0          
H6       H      0.141300000000     0.531900000000     0.307200000000     0          
C11      C      0.403450000000     0.508030000000     0.140410000000     0          
C12      C      0.136840000000     0.539800000000     0.406260000000     0          
N1       N      0.282560000000     0.525600000000     0.216190000000     0          
N2       N      0.213480000000     0.534800000000     0.285340000000     0          
Cr1      Cr     0.202590000000     0.522160000000     0.206320000000     0          
C13      C      0.132500000000     0.513600000000     0.207500000000     0          
C14      C      0.201600000000     0.515500000000     0.136000000000     0          
C15      C      0.195900000000     0.589600000000     0.193300000000     0          
C16      C      0.200700000000     0.454300000000     0.213400000000     0          
O7       O      0.088200000000     0.507200000000     0.206400000000     0          
O8       O      0.200500000000     0.511600000000     0.091200000000     0          
O9       O      0.191400000000     0.636600000000     0.179000000000     0          
O10      O      0.193600000000     0.407500000000     0.212800000000     0          
O12?     O      0.467570000000     0.449190000000     0.071310000000     0          
O1       O      0.446550000000     0.553450000000     0.053450000000     0          
N3       N      0.381500000000     0.618500000000     0.118500000000     0          
C17      C      0.355600000000     0.644400000000     0.144400000000     0          
C18      C      0.324100000000     0.675900000000     0.175900000000     0          
Zr1      Zr     0.481230000000     0.591860000000     0.984360000000     0          
O3       O      0.400670000000     0.618690000000     0.993510000000     0          
O4       O      0.352820000000     0.548920000000     0.015480000000     0          
O5       O      0.116580000000     0.906530000000     0.038500000000     0          
O6       O      0.045670000000     0.855100000000     0.037010000000     0          
C1       C      0.236490000000     0.698770000000     0.037100000000     0          
C2       C      0.227140000000     0.645960000000     0.042000000000     0          
H1       H      0.194900000000     0.634200000000     0.051600000000     0          
C3       C      0.266530000000     0.611480000000     0.032300000000     0          
H2       H      0.261100000000     0.576400000000     0.035500000000     0          
C4       C      0.314630000000     0.630640000000     0.017800000000     0          
C5       C      0.321880000000     0.683800000000     0.015900000000     0          
H3       H      0.354200000000     0.696400000000     0.007700000000     0          
C6       C      0.196860000000     0.738310000000     0.042400000000     0          
C7       C      0.145560000000     0.728310000000     0.053400000000     0          
H4       H      0.135200000000     0.695200000000     0.061800000000     0          
C8       C      0.109930000000     0.767860000000     0.051800000000     0          
H5       H      0.075000000000     0.761500000000     0.055700000000     0          
C9       C      0.128490000000     0.817820000000     0.043990000000     0          
C10      C      0.180820000000     0.825350000000     0.036200000000     0          
H6       H      0.192800000000     0.858700000000     0.031900000000     0          
C11      C      0.359590000000     0.596550000000     0.008030000000     0          
C12      C      0.093740000000     0.863160000000     0.039800000000     0          
N1       N      0.283810000000     0.717440000000     0.025600000000     0          
N2       N      0.214660000000     0.786520000000     0.034800000000     0          
Cr1      Cr     0.293680000000     0.797410000000     0.022160000000     0          
C13      C      0.292500000000     0.867500000000     0.013600000000     0          
C14      C      0.364000000000     0.798400000000     0.015500000000     0          
C15      C      0.306700000000     0.804100000000     0.089600000000     0          
C16      C      0.286600000000     0.799300000000     0.954300000000     0          
O7       O      0.293600000000     0.911800000000     0.007200000000     0          
O8       O      0.408800000000     0.799500000000     0.011600000000     0          
O9       O      0.321000000000     0.808600000000     0.136600000000     0          
O10      O      0.287200000000     0.806400000000     0.907500000000     0          
O12?     O      0.428690000000     0.532430000000     0.949190000000     0          
Zr1      Zr     0.018770000000     0.408140000000     0.484360000000     0          
O3       O      0.099330000000     0.381310000000     0.493510000000     0          
O4       O      0.147180000000     0.451080000000     0.515480000000     0          
O5       O      0.383420000000     0.093470000000     0.538500000000     0          
O6       O      0.454330000000     0.144900000000     0.537010000000     0          
C1       C      0.263510000000     0.301230000000     0.537100000000     0          
C2       C      0.272860000000     0.354040000000     0.542000000000     0          
H1       H      0.305100000000     0.365800000000     0.551600000000     0          
C3       C      0.233470000000     0.388520000000     0.532300000000     0          
H2       H      0.238900000000     0.423600000000     0.535500000000     0          
C4       C      0.185370000000     0.369360000000     0.517800000000     0          
C5       C      0.178120000000     0.316200000000     0.515900000000     0          
H3       H      0.145800000000     0.303600000000     0.507700000000     0          
C6       C      0.303140000000     0.261690000000     0.542400000000     0          
C7       C      0.354440000000     0.271690000000     0.553400000000     0          
H4       H      0.364800000000     0.304800000000     0.561800000000     0          
C8       C      0.390070000000     0.232140000000     0.551800000000     0          
H5       H      0.425000000000     0.238500000000     0.555700000000     0          
C9       C      0.371510000000     0.182180000000     0.543990000000     0          
C10      C      0.319180000000     0.174650000000     0.536200000000     0          
H6       H      0.307200000000     0.141300000000     0.531900000000     0          
C11      C      0.140410000000     0.403450000000     0.508030000000     0          
C12      C      0.406260000000     0.136840000000     0.539800000000     0          
N1       N      0.216190000000     0.282560000000     0.525600000000     0          
N2       N      0.285340000000     0.213480000000     0.534800000000     0          
Cr1      Cr     0.206320000000     0.202590000000     0.522160000000     0          
C13      C      0.207500000000     0.132500000000     0.513600000000     0          
C14      C      0.136000000000     0.201600000000     0.515500000000     0          
C15      C      0.193300000000     0.195900000000     0.589600000000     0          
C16      C      0.213400000000     0.200700000000     0.454300000000     0          
O7       O      0.206400000000     0.088200000000     0.507200000000     0          
O8       O      0.091200000000     0.200500000000     0.511600000000     0          
O9       O      0.179000000000     0.191400000000     0.636600000000     0          
O10      O      0.212800000000     0.193600000000     0.407500000000     0          
O12?     O      0.071310000000     0.467570000000     0.449190000000     0          
Zr1      Zr     0.981230000000     0.908140000000     0.015640000000     0          
O3       O      0.900670000000     0.881310000000     0.006490000000     0          
O4       O      0.852820000000     0.951080000000     0.984520000000     0          
O5       O      0.616580000000     0.593470000000     0.961500000000     0          
O6       O      0.545670000000     0.644900000000     0.962990000000     0          
C1       C      0.736490000000     0.801230000000     0.962900000000     0          
C2       C      0.727140000000     0.854040000000     0.958000000000     0          
H1       H      0.694900000000     0.865800000000     0.948400000000     0          
C3       C      0.766530000000     0.888520000000     0.967700000000     0          
H2       H      0.761100000000     0.923600000000     0.964500000000     0          
C4       C      0.814630000000     0.869360000000     0.982200000000     0          
C5       C      0.821880000000     0.816200000000     0.984100000000     0          
H3       H      0.854200000000     0.803600000000     0.992300000000     0          
C6       C      0.696860000000     0.761690000000     0.957600000000     0          
C7       C      0.645560000000     0.771690000000     0.946600000000     0          
H4       H      0.635200000000     0.804800000000     0.938200000000     0          
C8       C      0.609930000000     0.732140000000     0.948200000000     0          
H5       H      0.575000000000     0.738500000000     0.944300000000     0          
C9       C      0.628490000000     0.682180000000     0.956010000000     0          
C10      C      0.680820000000     0.674650000000     0.963800000000     0          
H6       H      0.692800000000     0.641300000000     0.968100000000     0          
C11      C      0.859590000000     0.903450000000     0.991970000000     0          
C12      C      0.593740000000     0.636840000000     0.960200000000     0          
N1       N      0.783810000000     0.782560000000     0.974400000000     0          
N2       N      0.714660000000     0.713480000000     0.965200000000     0          
Cr1      Cr     0.793680000000     0.702590000000     0.977840000000     0          
C13      C      0.792500000000     0.632500000000     0.986400000000     0          
C14      C      0.864000000000     0.701600000000     0.984500000000     0          
C15      C      0.806700000000     0.695900000000     0.910400000000     0          
C16      C      0.786600000000     0.700700000000     0.045700000000     0          
O7       O      0.793600000000     0.588200000000     0.992800000000     0          
O8       O      0.908800000000     0.700500000000     0.988400000000     0          
O9       O      0.821000000000     0.691400000000     0.863400000000     0          
O10      O      0.787200000000     0.693600000000     0.092500000000     0          
O12?     O      0.928690000000     0.967570000000     0.050810000000     0          
Zr1      Zr     0.518770000000     0.091860000000     0.515640000000     0          
O3       O      0.599330000000     0.118690000000     0.506490000000     0          
O4       O      0.647180000000     0.048920000000     0.484520000000     0          
O5       O      0.883420000000     0.406530000000     0.461500000000     0          
O6       O      0.954330000000     0.355100000000     0.462990000000     0          
C1       C      0.763510000000     0.198770000000     0.462900000000     0          
C2       C      0.772860000000     0.145960000000     0.458000000000     0          
H1       H      0.805100000000     0.134200000000     0.448400000000     0          
C3       C      0.733470000000     0.111480000000     0.467700000000     0          
H2       H      0.738900000000     0.076400000000     0.464500000000     0          
C4       C      0.685370000000     0.130640000000     0.482200000000     0          
C5       C      0.678120000000     0.183800000000     0.484100000000     0          
H3       H      0.645800000000     0.196400000000     0.492300000000     0          
C6       C      0.803140000000     0.238310000000     0.457600000000     0          
C7       C      0.854440000000     0.228310000000     0.446600000000     0          
H4       H      0.864800000000     0.195200000000     0.438200000000     0          
C8       C      0.890070000000     0.267860000000     0.448200000000     0          
H5       H      0.925000000000     0.261500000000     0.444300000000     0          
C9       C      0.871510000000     0.317820000000     0.456010000000     0          
C10      C      0.819180000000     0.325350000000     0.463800000000     0          
H6       H      0.807200000000     0.358700000000     0.468100000000     0          
C11      C      0.640410000000     0.096550000000     0.491970000000     0          
C12      C      0.906260000000     0.363160000000     0.460200000000     0          
N1       N      0.716190000000     0.217440000000     0.474400000000     0          
N2       N      0.785340000000     0.286520000000     0.465200000000     0          
Cr1      Cr     0.706320000000     0.297410000000     0.477840000000     0          
C13      C      0.707500000000     0.367500000000     0.486400000000     0          
C14      C      0.636000000000     0.298400000000     0.484500000000     0          
C15      C      0.693300000000     0.304100000000     0.410400000000     0          
C16      C      0.713400000000     0.299300000000     0.545700000000     0          
O7       O      0.706400000000     0.411800000000     0.492800000000     0          
O8       O      0.591200000000     0.299500000000     0.488400000000     0          
O9       O      0.679000000000     0.308600000000     0.363400000000     0          
O10      O      0.712800000000     0.306400000000     0.592500000000     0          
O12?     O      0.571310000000     0.032430000000     0.550810000000     0          
Zr1      Zr     0.984360000000     0.481230000000     0.591860000000     0          
O3       O      0.993510000000     0.400670000000     0.618690000000     0          
O4       O      0.015480000000     0.352820000000     0.548920000000     0          
O5       O      0.038500000000     0.116580000000     0.906530000000     0          
O6       O      0.037010000000     0.045670000000     0.855100000000     0          
C1       C      0.037100000000     0.236490000000     0.698770000000     0          
C2       C      0.042000000000     0.227140000000     0.645960000000     0          
H1       H      0.051600000000     0.194900000000     0.634200000000     0          
C3       C      0.032300000000     0.266530000000     0.611480000000     0          
H2       H      0.035500000000     0.261100000000     0.576400000000     0          
C4       C      0.017800000000     0.314630000000     0.630640000000     0          
C5       C      0.015900000000     0.321880000000     0.683800000000     0          
H3       H      0.007700000000     0.354200000000     0.696400000000     0          
C6       C      0.042400000000     0.196860000000     0.738310000000     0          
C7       C      0.053400000000     0.145560000000     0.728310000000     0          
H4       H      0.061800000000     0.135200000000     0.695200000000     0          
C8       C      0.051800000000     0.109930000000     0.767860000000     0          
H5       H      0.055700000000     0.075000000000     0.761500000000     0          
C9       C      0.043990000000     0.128490000000     0.817820000000     0          
C10      C      0.036200000000     0.180820000000     0.825350000000     0          
H6       H      0.031900000000     0.192800000000     0.858700000000     0          
C11      C      0.008030000000     0.359590000000     0.596550000000     0          
C12      C      0.039800000000     0.093740000000     0.863160000000     0          
N1       N      0.025600000000     0.283810000000     0.717440000000     0          
N2       N      0.034800000000     0.214660000000     0.786520000000     0          
Cr1      Cr     0.022160000000     0.293680000000     0.797410000000     0          
C13      C      0.013600000000     0.292500000000     0.867500000000     0          
C14      C      0.015500000000     0.364000000000     0.798400000000     0          
C15      C      0.089600000000     0.306700000000     0.804100000000     0          
C16      C      0.954300000000     0.286600000000     0.799300000000     0          
O7       O      0.007200000000     0.293600000000     0.911800000000     0          
O8       O      0.011600000000     0.408800000000     0.799500000000     0          
O9       O      0.136600000000     0.321000000000     0.808600000000     0          
O10      O      0.907500000000     0.287200000000     0.806400000000     0          
O12?     O      0.949190000000     0.428690000000     0.532430000000     0          
Zr1      Zr     0.484360000000     0.018770000000     0.408140000000     0          
O3       O      0.493510000000     0.099330000000     0.381310000000     0          
O4       O      0.515480000000     0.147180000000     0.451080000000     0          
O5       O      0.538500000000     0.383420000000     0.093470000000     0          
O6       O      0.537010000000     0.454330000000     0.144900000000     0          
C1       C      0.537100000000     0.263510000000     0.301230000000     0          
C2       C      0.542000000000     0.272860000000     0.354040000000     0          
H1       H      0.551600000000     0.305100000000     0.365800000000     0          
C3       C      0.532300000000     0.233470000000     0.388520000000     0          
H2       H      0.535500000000     0.238900000000     0.423600000000     0          
C4       C      0.517800000000     0.185370000000     0.369360000000     0          
C5       C      0.515900000000     0.178120000000     0.316200000000     0          
H3       H      0.507700000000     0.145800000000     0.303600000000     0          
C6       C      0.542400000000     0.303140000000     0.261690000000     0          
C7       C      0.553400000000     0.354440000000     0.271690000000     0          
H4       H      0.561800000000     0.364800000000     0.304800000000     0          
C8       C      0.551800000000     0.390070000000     0.232140000000     0          
H5       H      0.555700000000     0.425000000000     0.238500000000     0          
C9       C      0.543990000000     0.371510000000     0.182180000000     0          
C10      C      0.536200000000     0.319180000000     0.174650000000     0          
H6       H      0.531900000000     0.307200000000     0.141300000000     0          
C11      C      0.508030000000     0.140410000000     0.403450000000     0          
C12      C      0.539800000000     0.406260000000     0.136840000000     0          
N1       N      0.525600000000     0.216190000000     0.282560000000     0          
N2       N      0.534800000000     0.285340000000     0.213480000000     0          
Cr1      Cr     0.522160000000     0.206320000000     0.202590000000     0          
C13      C      0.513600000000     0.207500000000     0.132500000000     0          
C14      C      0.515500000000     0.136000000000     0.201600000000     0          
C15      C      0.589600000000     0.193300000000     0.195900000000     0          
C16      C      0.454300000000     0.213400000000     0.200700000000     0          
O7       O      0.507200000000     0.206400000000     0.088200000000     0          
O8       O      0.511600000000     0.091200000000     0.200500000000     0          
O9       O      0.636600000000     0.179000000000     0.191400000000     0          
O10      O      0.407500000000     0.212800000000     0.193600000000     0          
O12?     O      0.449190000000     0.071310000000     0.467570000000     0          
Zr1      Zr     0.015640000000     0.981230000000     0.908140000000     0          
O3       O      0.006490000000     0.900670000000     0.881310000000     0          
O4       O      0.984520000000     0.852820000000     0.951080000000     0          
O5       O      0.961500000000     0.616580000000     0.593470000000     0          
O6       O      0.962990000000     0.545670000000     0.644900000000     0          
C1       C      0.962900000000     0.736490000000     0.801230000000     0          
C2       C      0.958000000000     0.727140000000     0.854040000000     0          
H1       H      0.948400000000     0.694900000000     0.865800000000     0          
C3       C      0.967700000000     0.766530000000     0.888520000000     0          
H2       H      0.964500000000     0.761100000000     0.923600000000     0          
C4       C      0.982200000000     0.814630000000     0.869360000000     0          
C5       C      0.984100000000     0.821880000000     0.816200000000     0          
H3       H      0.992300000000     0.854200000000     0.803600000000     0          
C6       C      0.957600000000     0.696860000000     0.761690000000     0          
C7       C      0.946600000000     0.645560000000     0.771690000000     0          
H4       H      0.938200000000     0.635200000000     0.804800000000     0          
C8       C      0.948200000000     0.609930000000     0.732140000000     0          
H5       H      0.944300000000     0.575000000000     0.738500000000     0          
C9       C      0.956010000000     0.628490000000     0.682180000000     0          
C10      C      0.963800000000     0.680820000000     0.674650000000     0          
H6       H      0.968100000000     0.692800000000     0.641300000000     0          
C11      C      0.991970000000     0.859590000000     0.903450000000     0          
C12      C      0.960200000000     0.593740000000     0.636840000000     0          
N1       N      0.974400000000     0.783810000000     0.782560000000     0          
N2       N      0.965200000000     0.714660000000     0.713480000000     0          
Cr1      Cr     0.977840000000     0.793680000000     0.702590000000     0          
C13      C      0.986400000000     0.792500000000     0.632500000000     0          
C14      C      0.984500000000     0.864000000000     0.701600000000     0          
C15      C      0.910400000000     0.806700000000     0.695900000000     0          
C16      C      0.045700000000     0.786600000000     0.700700000000     0          
O7       O      0.992800000000     0.793600000000     0.588200000000     0          
O8       O      0.988400000000     0.908800000000     0.700500000000     0          
O9       O      0.863400000000     0.821000000000     0.691400000000     0          
O10      O      0.092500000000     0.787200000000     0.693600000000     0          
O12?     O      0.050810000000     0.928690000000     0.967570000000     0          
Zr1      Zr     0.515640000000     0.518770000000     0.091860000000     0          
O3       O      0.506490000000     0.599330000000     0.118690000000     0          
O4       O      0.484520000000     0.647180000000     0.048920000000     0          
O5       O      0.461500000000     0.883420000000     0.406530000000     0          
O6       O      0.462990000000     0.954330000000     0.355100000000     0          
C1       C      0.462900000000     0.763510000000     0.198770000000     0          
C2       C      0.458000000000     0.772860000000     0.145960000000     0          
H1       H      0.448400000000     0.805100000000     0.134200000000     0          
C3       C      0.467700000000     0.733470000000     0.111480000000     0          
H2       H      0.464500000000     0.738900000000     0.076400000000     0          
C4       C      0.482200000000     0.685370000000     0.130640000000     0          
C5       C      0.484100000000     0.678120000000     0.183800000000     0          
H3       H      0.492300000000     0.645800000000     0.196400000000     0          
C6       C      0.457600000000     0.803140000000     0.238310000000     0          
C7       C      0.446600000000     0.854440000000     0.228310000000     0          
H4       H      0.438200000000     0.864800000000     0.195200000000     0          
C8       C      0.448200000000     0.890070000000     0.267860000000     0          
H5       H      0.444300000000     0.925000000000     0.261500000000     0          
C9       C      0.456010000000     0.871510000000     0.317820000000     0          
C10      C      0.463800000000     0.819180000000     0.325350000000     0          
H6       H      0.468100000000     0.807200000000     0.358700000000     0          
C11      C      0.491970000000     0.640410000000     0.096550000000     0          
C12      C      0.460200000000     0.906260000000     0.363160000000     0          
N1       N      0.474400000000     0.716190000000     0.217440000000     0          
N2       N      0.465200000000     0.785340000000     0.286520000000     0          
Cr1      Cr     0.477840000000     0.706320000000     0.297410000000     0          
C13      C      0.486400000000     0.707500000000     0.367500000000     0          
C14      C      0.484500000000     0.636000000000     0.298400000000     0          
C15      C      0.410400000000     0.693300000000     0.304100000000     0          
C16      C      0.545700000000     0.713400000000     0.299300000000     0          
O7       O      0.492800000000     0.706400000000     0.411800000000     0          
O8       O      0.488400000000     0.591200000000     0.299500000000     0          
O9       O      0.363400000000     0.679000000000     0.308600000000     0          
O10      O      0.592500000000     0.712800000000     0.306400000000     0          
O12?     O      0.550810000000     0.571310000000     0.032430000000     0          
Zr1      Zr     0.408140000000     0.015640000000     0.518770000000     0          
O3       O      0.381310000000     0.006490000000     0.599330000000     0          
O4       O      0.451080000000     0.984520000000     0.647180000000     0          
O5       O      0.093470000000     0.961500000000     0.883420000000     0          
O6       O      0.144900000000     0.962990000000     0.954330000000     0          
C1       C      0.301230000000     0.962900000000     0.763510000000     0          
C2       C      0.354040000000     0.958000000000     0.772860000000     0          
H1       H      0.365800000000     0.948400000000     0.805100000000     0          
C3       C      0.388520000000     0.967700000000     0.733470000000     0          
H2       H      0.423600000000     0.964500000000     0.738900000000     0          
C4       C      0.369360000000     0.982200000000     0.685370000000     0          
C5       C      0.316200000000     0.984100000000     0.678120000000     0          
H3       H      0.303600000000     0.992300000000     0.645800000000     0          
C6       C      0.261690000000     0.957600000000     0.803140000000     0          
C7       C      0.271690000000     0.946600000000     0.854440000000     0          
H4       H      0.304800000000     0.938200000000     0.864800000000     0          
C8       C      0.232140000000     0.948200000000     0.890070000000     0          
H5       H      0.238500000000     0.944300000000     0.925000000000     0          
C9       C      0.182180000000     0.956010000000     0.871510000000     0          
C10      C      0.174650000000     0.963800000000     0.819180000000     0          
H6       H      0.141300000000     0.968100000000     0.807200000000     0          
C11      C      0.403450000000     0.991970000000     0.640410000000     0          
C12      C      0.136840000000     0.960200000000     0.906260000000     0          
N1       N      0.282560000000     0.974400000000     0.716190000000     0          
N2       N      0.213480000000     0.965200000000     0.785340000000     0          
Cr1      Cr     0.202590000000     0.977840000000     0.706320000000     0          
C13      C      0.132500000000     0.986400000000     0.707500000000     0          
C14      C      0.201600000000     0.984500000000     0.636000000000     0          
C15      C      0.195900000000     0.910400000000     0.693300000000     0          
C16      C      0.200700000000     0.045700000000     0.713400000000     0          
O7       O      0.088200000000     0.992800000000     0.706400000000     0          
O8       O      0.200500000000     0.988400000000     0.591200000000     0          
O9       O      0.191400000000     0.863400000000     0.679000000000     0          
O10      O      0.193600000000     0.092500000000     0.712800000000     0          
O12?     O      0.467570000000     0.050810000000     0.571310000000     0          
O1       O      0.446550000000     0.946550000000     0.553450000000     0          
N3       N      0.381500000000     0.881500000000     0.618500000000     0          
C17      C      0.355600000000     0.855600000000     0.644400000000     0          
C18      C      0.324100000000     0.824100000000     0.675900000000     0          
Zr1      Zr     0.091860000000     0.984360000000     0.018770000000     0          
O3       O      0.118690000000     0.993510000000     0.099330000000     0          
O4       O      0.048920000000     0.015480000000     0.147180000000     0          
O5       O      0.406530000000     0.038500000000     0.383420000000     0          
O6       O      0.355100000000     0.037010000000     0.454330000000     0          
C1       C      0.198770000000     0.037100000000     0.263510000000     0          
C2       C      0.145960000000     0.042000000000     0.272860000000     0          
H1       H      0.134200000000     0.051600000000     0.305100000000     0          
C3       C      0.111480000000     0.032300000000     0.233470000000     0          
H2       H      0.076400000000     0.035500000000     0.238900000000     0          
C4       C      0.130640000000     0.017800000000     0.185370000000     0          
C5       C      0.183800000000     0.015900000000     0.178120000000     0          
H3       H      0.196400000000     0.007700000000     0.145800000000     0          
C6       C      0.238310000000     0.042400000000     0.303140000000     0          
C7       C      0.228310000000     0.053400000000     0.354440000000     0          
H4       H      0.195200000000     0.061800000000     0.364800000000     0          
C8       C      0.267860000000     0.051800000000     0.390070000000     0          
H5       H      0.261500000000     0.055700000000     0.425000000000     0          
C9       C      0.317820000000     0.043990000000     0.371510000000     0          
C10      C      0.325350000000     0.036200000000     0.319180000000     0          
H6       H      0.358700000000     0.031900000000     0.307200000000     0          
C11      C      0.096550000000     0.008030000000     0.140410000000     0          
C12      C      0.363160000000     0.039800000000     0.406260000000     0          
N1       N      0.217440000000     0.025600000000     0.216190000000     0          
N2       N      0.286520000000     0.034800000000     0.285340000000     0          
Cr1      Cr     0.297410000000     0.022160000000     0.206320000000     0          
C13      C      0.367500000000     0.013600000000     0.207500000000     0          
C14      C      0.298400000000     0.015500000000     0.136000000000     0          
C15      C      0.304100000000     0.089600000000     0.193300000000     0          
C16      C      0.299300000000     0.954300000000     0.213400000000     0          
O7       O      0.411800000000     0.007200000000     0.206400000000     0          
O8       O      0.299500000000     0.011600000000     0.091200000000     0          
O9       O      0.308600000000     0.136600000000     0.179000000000     0          
O10      O      0.306400000000     0.907500000000     0.212800000000     0          
O12?     O      0.032430000000     0.949190000000     0.071310000000     0          
O1       O      0.053450000000     0.053450000000     0.053450000000     0          
N3       N      0.118500000000     0.118500000000     0.118500000000     0          
C17      C      0.144400000000     0.144400000000     0.144400000000     0          
C18      C      0.175900000000     0.175900000000     0.175900000000     0          
Zr1      Zr     0.908140000000     0.484360000000     0.481230000000     0          
O3       O      0.881310000000     0.493510000000     0.400670000000     0          
O4       O      0.951080000000     0.515480000000     0.352820000000     0          
O5       O      0.593470000000     0.538500000000     0.116580000000     0          
O6       O      0.644900000000     0.537010000000     0.045670000000     0          
C1       C      0.801230000000     0.537100000000     0.236490000000     0          
C2       C      0.854040000000     0.542000000000     0.227140000000     0          
H1       H      0.865800000000     0.551600000000     0.194900000000     0          
C3       C      0.888520000000     0.532300000000     0.266530000000     0          
H2       H      0.923600000000     0.535500000000     0.261100000000     0          
C4       C      0.869360000000     0.517800000000     0.314630000000     0          
C5       C      0.816200000000     0.515900000000     0.321880000000     0          
H3       H      0.803600000000     0.507700000000     0.354200000000     0          
C6       C      0.761690000000     0.542400000000     0.196860000000     0          
C7       C      0.771690000000     0.553400000000     0.145560000000     0          
H4       H      0.804800000000     0.561800000000     0.135200000000     0          
C8       C      0.732140000000     0.551800000000     0.109930000000     0          
H5       H      0.738500000000     0.555700000000     0.075000000000     0          
C9       C      0.682180000000     0.543990000000     0.128490000000     0          
C10      C      0.674650000000     0.536200000000     0.180820000000     0          
H6       H      0.641300000000     0.531900000000     0.192800000000     0          
C11      C      0.903450000000     0.508030000000     0.359590000000     0          
C12      C      0.636840000000     0.539800000000     0.093740000000     0          
N1       N      0.782560000000     0.525600000000     0.283810000000     0          
N2       N      0.713480000000     0.534800000000     0.214660000000     0          
Cr1      Cr     0.702590000000     0.522160000000     0.293680000000     0          
C13      C      0.632500000000     0.513600000000     0.292500000000     0          
C14      C      0.701600000000     0.515500000000     0.364000000000     0          
C15      C      0.695900000000     0.589600000000     0.306700000000     0          
C16      C      0.700700000000     0.454300000000     0.286600000000     0          
O7       O      0.588200000000     0.507200000000     0.293600000000     0          
O8       O      0.700500000000     0.511600000000     0.408800000000     0          
O9       O      0.691400000000     0.636600000000     0.321000000000     0          
O10      O      0.693600000000     0.407500000000     0.287200000000     0          
O12?     O      0.967570000000     0.449190000000     0.428690000000     0          
O1       O      0.946550000000     0.553450000000     0.446550000000     0          
N3       N      0.881500000000     0.618500000000     0.381500000000     0          
C17      C      0.855600000000     0.644400000000     0.355600000000     0          
C18      C      0.824100000000     0.675900000000     0.324100000000     0          
Zr1      Zr     0.591860000000     0.515640000000     0.981230000000     0          
O3       O      0.618690000000     0.506490000000     0.900670000000     0          
O4       O      0.548920000000     0.484520000000     0.852820000000     0          
O5       O      0.906530000000     0.461500000000     0.616580000000     0          
O6       O      0.855100000000     0.462990000000     0.545670000000     0          
C1       C      0.698770000000     0.462900000000     0.736490000000     0          
C2       C      0.645960000000     0.458000000000     0.727140000000     0          
H1       H      0.634200000000     0.448400000000     0.694900000000     0          
C3       C      0.611480000000     0.467700000000     0.766530000000     0          
H2       H      0.576400000000     0.464500000000     0.761100000000     0          
C4       C      0.630640000000     0.482200000000     0.814630000000     0          
C5       C      0.683800000000     0.484100000000     0.821880000000     0          
H3       H      0.696400000000     0.492300000000     0.854200000000     0          
C6       C      0.738310000000     0.457600000000     0.696860000000     0          
C7       C      0.728310000000     0.446600000000     0.645560000000     0          
H4       H      0.695200000000     0.438200000000     0.635200000000     0          
C8       C      0.767860000000     0.448200000000     0.609930000000     0          
H5       H      0.761500000000     0.444300000000     0.575000000000     0          
C9       C      0.817820000000     0.456010000000     0.628490000000     0          
C10      C      0.825350000000     0.463800000000     0.680820000000     0          
H6       H      0.858700000000     0.468100000000     0.692800000000     0          
C11      C      0.596550000000     0.491970000000     0.859590000000     0          
C12      C      0.863160000000     0.460200000000     0.593740000000     0          
N1       N      0.717440000000     0.474400000000     0.783810000000     0          
N2       N      0.786520000000     0.465200000000     0.714660000000     0          
Cr1      Cr     0.797410000000     0.477840000000     0.793680000000     0          
C13      C      0.867500000000     0.486400000000     0.792500000000     0          
C14      C      0.798400000000     0.484500000000     0.864000000000     0          
C15      C      0.804100000000     0.410400000000     0.806700000000     0          
C16      C      0.799300000000     0.545700000000     0.786600000000     0          
O7       O      0.911800000000     0.492800000000     0.793600000000     0          
O8       O      0.799500000000     0.488400000000     0.908800000000     0          
O9       O      0.808600000000     0.363400000000     0.821000000000     0          
O10      O      0.806400000000     0.592500000000     0.787200000000     0          
O12?     O      0.532430000000     0.550810000000     0.928690000000     0          
O1       O      0.553450000000     0.446550000000     0.946550000000     0          
N3       N      0.618500000000     0.381500000000     0.881500000000     0          
C17      C      0.644400000000     0.355600000000     0.855600000000     0          
C18      C      0.675900000000     0.324100000000     0.824100000000     0          
Zr1      Zr     0.518770000000     0.408140000000     0.015640000000     0          
O3       O      0.599330000000     0.381310000000     0.006490000000     0          
O4       O      0.647180000000     0.451080000000     0.984520000000     0          
O5       O      0.883420000000     0.093470000000     0.961500000000     0          
O6       O      0.954330000000     0.144900000000     0.962990000000     0          
C1       C      0.763510000000     0.301230000000     0.962900000000     0          
C2       C      0.772860000000     0.354040000000     0.958000000000     0          
H1       H      0.805100000000     0.365800000000     0.948400000000     0          
C3       C      0.733470000000     0.388520000000     0.967700000000     0          
H2       H      0.738900000000     0.423600000000     0.964500000000     0          
C4       C      0.685370000000     0.369360000000     0.982200000000     0          
C5       C      0.678120000000     0.316200000000     0.984100000000     0          
H3       H      0.645800000000     0.303600000000     0.992300000000     0          
C6       C      0.803140000000     0.261690000000     0.957600000000     0          
C7       C      0.854440000000     0.271690000000     0.946600000000     0          
H4       H      0.864800000000     0.304800000000     0.938200000000     0          
C8       C      0.890070000000     0.232140000000     0.948200000000     0          
H5       H      0.925000000000     0.238500000000     0.944300000000     0          
C9       C      0.871510000000     0.182180000000     0.956010000000     0          
C10      C      0.819180000000     0.174650000000     0.963800000000     0          
H6       H      0.807200000000     0.141300000000     0.968100000000     0          
C11      C      0.640410000000     0.403450000000     0.991970000000     0          
C12      C      0.906260000000     0.136840000000     0.960200000000     0          
N1       N      0.716190000000     0.282560000000     0.974400000000     0          
N2       N      0.785340000000     0.213480000000     0.965200000000     0          
Cr1      Cr     0.706320000000     0.202590000000     0.977840000000     0          
C13      C      0.707500000000     0.132500000000     0.986400000000     0          
C14      C      0.636000000000     0.201600000000     0.984500000000     0          
C15      C      0.693300000000     0.195900000000     0.910400000000     0          
C16      C      0.713400000000     0.200700000000     0.045700000000     0          
O7       O      0.706400000000     0.088200000000     0.992800000000     0          
O8       O      0.591200000000     0.200500000000     0.988400000000     0          
O9       O      0.679000000000     0.191400000000     0.863400000000     0          
O10      O      0.712800000000     0.193600000000     0.092500000000     0          
O12?     O      0.571310000000     0.467570000000     0.050810000000     0          
Zr1      Zr     0.981230000000     0.591860000000     0.515640000000     0          
O3       O      0.900670000000     0.618690000000     0.506490000000     0          
O4       O      0.852820000000     0.548920000000     0.484520000000     0          
O5       O      0.616580000000     0.906530000000     0.461500000000     0          
O6       O      0.545670000000     0.855100000000     0.462990000000     0          
C1       C      0.736490000000     0.698770000000     0.462900000000     0          
C2       C      0.727140000000     0.645960000000     0.458000000000     0          
H1       H      0.694900000000     0.634200000000     0.448400000000     0          
C3       C      0.766530000000     0.611480000000     0.467700000000     0          
H2       H      0.761100000000     0.576400000000     0.464500000000     0          
C4       C      0.814630000000     0.630640000000     0.482200000000     0          
C5       C      0.821880000000     0.683800000000     0.484100000000     0          
H3       H      0.854200000000     0.696400000000     0.492300000000     0          
C6       C      0.696860000000     0.738310000000     0.457600000000     0          
C7       C      0.645560000000     0.728310000000     0.446600000000     0          
H4       H      0.635200000000     0.695200000000     0.438200000000     0          
C8       C      0.609930000000     0.767860000000     0.448200000000     0          
H5       H      0.575000000000     0.761500000000     0.444300000000     0          
C9       C      0.628490000000     0.817820000000     0.456010000000     0          
C10      C      0.680820000000     0.825350000000     0.463800000000     0          
H6       H      0.692800000000     0.858700000000     0.468100000000     0          
C11      C      0.859590000000     0.596550000000     0.491970000000     0          
C12      C      0.593740000000     0.863160000000     0.460200000000     0          
N1       N      0.783810000000     0.717440000000     0.474400000000     0          
N2       N      0.714660000000     0.786520000000     0.465200000000     0          
Cr1      Cr     0.793680000000     0.797410000000     0.477840000000     0          
C13      C      0.792500000000     0.867500000000     0.486400000000     0          
C14      C      0.864000000000     0.798400000000     0.484500000000     0          
C15      C      0.806700000000     0.804100000000     0.410400000000     0          
C16      C      0.786600000000     0.799300000000     0.545700000000     0          
O7       O      0.793600000000     0.911800000000     0.492800000000     0          
O8       O      0.908800000000     0.799500000000     0.488400000000     0          
O9       O      0.821000000000     0.808600000000     0.363400000000     0          
O10      O      0.787200000000     0.806400000000     0.592500000000     0          
O12?     O      0.928690000000     0.532430000000     0.550810000000     0          
Zr1      Zr     0.018770000000     0.091860000000     0.984360000000     0          
O3       O      0.099330000000     0.118690000000     0.993510000000     0          
O4       O      0.147180000000     0.048920000000     0.015480000000     0          
O5       O      0.383420000000     0.406530000000     0.038500000000     0          
O6       O      0.454330000000     0.355100000000     0.037010000000     0          
C1       C      0.263510000000     0.198770000000     0.037100000000     0          
C2       C      0.272860000000     0.145960000000     0.042000000000     0          
H1       H      0.305100000000     0.134200000000     0.051600000000     0          
C3       C      0.233470000000     0.111480000000     0.032300000000     0          
H2       H      0.238900000000     0.076400000000     0.035500000000     0          
C4       C      0.185370000000     0.130640000000     0.017800000000     0          
C5       C      0.178120000000     0.183800000000     0.015900000000     0          
H3       H      0.145800000000     0.196400000000     0.007700000000     0          
C6       C      0.303140000000     0.238310000000     0.042400000000     0          
C7       C      0.354440000000     0.228310000000     0.053400000000     0          
H4       H      0.364800000000     0.195200000000     0.061800000000     0          
C8       C      0.390070000000     0.267860000000     0.051800000000     0          
H5       H      0.425000000000     0.261500000000     0.055700000000     0          
C9       C      0.371510000000     0.317820000000     0.043990000000     0          
C10      C      0.319180000000     0.325350000000     0.036200000000     0          
H6       H      0.307200000000     0.358700000000     0.031900000000     0          
C11      C      0.140410000000     0.096550000000     0.008030000000     0          
C12      C      0.406260000000     0.363160000000     0.039800000000     0          
N1       N      0.216190000000     0.217440000000     0.025600000000     0          
N2       N      0.285340000000     0.286520000000     0.034800000000     0          
Cr1      Cr     0.206320000000     0.297410000000     0.022160000000     0          
C13      C      0.207500000000     0.367500000000     0.013600000000     0          
C14      C      0.136000000000     0.298400000000     0.015500000000     0          
C15      C      0.193300000000     0.304100000000     0.089600000000     0          
C16      C      0.213400000000     0.299300000000     0.954300000000     0          
O7       O      0.206400000000     0.411800000000     0.007200000000     0          
O8       O      0.091200000000     0.299500000000     0.011600000000     0          
O9       O      0.179000000000     0.308600000000     0.136600000000     0          
O10      O      0.212800000000     0.306400000000     0.907500000000     0          
O12?     O      0.071310000000     0.032430000000     0.949190000000     0          
Zr1      Zr     0.481230000000     0.908140000000     0.484360000000     0          
O3       O      0.400670000000     0.881310000000     0.493510000000     0          
O4       O      0.352820000000     0.951080000000     0.515480000000     0          
O5       O      0.116580000000     0.593470000000     0.538500000000     0          
O6       O      0.045670000000     0.644900000000     0.537010000000     0          
C1       C      0.236490000000     0.801230000000     0.537100000000     0          
C2       C      0.227140000000     0.854040000000     0.542000000000     0          
H1       H      0.194900000000     0.865800000000     0.551600000000     0          
C3       C      0.266530000000     0.888520000000     0.532300000000     0          
H2       H      0.261100000000     0.923600000000     0.535500000000     0          
C4       C      0.314630000000     0.869360000000     0.517800000000     0          
C5       C      0.321880000000     0.816200000000     0.515900000000     0          
H3       H      0.354200000000     0.803600000000     0.507700000000     0          
C6       C      0.196860000000     0.761690000000     0.542400000000     0          
C7       C      0.145560000000     0.771690000000     0.553400000000     0          
H4       H      0.135200000000     0.804800000000     0.561800000000     0          
C8       C      0.109930000000     0.732140000000     0.551800000000     0          
H5       H      0.075000000000     0.738500000000     0.555700000000     0          
C9       C      0.128490000000     0.682180000000     0.543990000000     0          
C10      C      0.180820000000     0.674650000000     0.536200000000     0          
H6       H      0.192800000000     0.641300000000     0.531900000000     0          
C11      C      0.359590000000     0.903450000000     0.508030000000     0          
C12      C      0.093740000000     0.636840000000     0.539800000000     0          
N1       N      0.283810000000     0.782560000000     0.525600000000     0          
N2       N      0.214660000000     0.713480000000     0.534800000000     0          
Cr1      Cr     0.293680000000     0.702590000000     0.522160000000     0          
C13      C      0.292500000000     0.632500000000     0.513600000000     0          
C14      C      0.364000000000     0.701600000000     0.515500000000     0          
C15      C      0.306700000000     0.695900000000     0.589600000000     0          
C16      C      0.286600000000     0.700700000000     0.454300000000     0          
O7       O      0.293600000000     0.588200000000     0.507200000000     0          
O8       O      0.408800000000     0.700500000000     0.511600000000     0          
O9       O      0.321000000000     0.691400000000     0.636600000000     0          
O10      O      0.287200000000     0.693600000000     0.407500000000     0          
O12?     O      0.428690000000     0.967570000000     0.449190000000     0          
Zr1      Zr     0.015640000000     0.518770000000     0.408140000000     0          
O3       O      0.006490000000     0.599330000000     0.381310000000     0          
O4       O      0.984520000000     0.647180000000     0.451080000000     0          
O5       O      0.961500000000     0.883420000000     0.093470000000     0          
O6       O      0.962990000000     0.954330000000     0.144900000000     0          
C1       C      0.962900000000     0.763510000000     0.301230000000     0          
C2       C      0.958000000000     0.772860000000     0.354040000000     0          
H1       H      0.948400000000     0.805100000000     0.365800000000     0          
C3       C      0.967700000000     0.733470000000     0.388520000000     0          
H2       H      0.964500000000     0.738900000000     0.423600000000     0          
C4       C      0.982200000000     0.685370000000     0.369360000000     0          
C5       C      0.984100000000     0.678120000000     0.316200000000     0          
H3       H      0.992300000000     0.645800000000     0.303600000000     0          
C6       C      0.957600000000     0.803140000000     0.261690000000     0          
C7       C      0.946600000000     0.854440000000     0.271690000000     0          
H4       H      0.938200000000     0.864800000000     0.304800000000     0          
C8       C      0.948200000000     0.890070000000     0.232140000000     0          
H5       H      0.944300000000     0.925000000000     0.238500000000     0          
C9       C      0.956010000000     0.871510000000     0.182180000000     0          
C10      C      0.963800000000     0.819180000000     0.174650000000     0          
H6       H      0.968100000000     0.807200000000     0.141300000000     0          
C11      C      0.991970000000     0.640410000000     0.403450000000     0          
C12      C      0.960200000000     0.906260000000     0.136840000000     0          
N1       N      0.974400000000     0.716190000000     0.282560000000     0          
N2       N      0.965200000000     0.785340000000     0.213480000000     0          
Cr1      Cr     0.977840000000     0.706320000000     0.202590000000     0          
C13      C      0.986400000000     0.707500000000     0.132500000000     0          
C14      C      0.984500000000     0.636000000000     0.201600000000     0          
C15      C      0.910400000000     0.693300000000     0.195900000000     0          
C16      C      0.045700000000     0.713400000000     0.200700000000     0          
O7       O      0.992800000000     0.706400000000     0.088200000000     0          
O8       O      0.988400000000     0.591200000000     0.200500000000     0          
O9       O      0.863400000000     0.679000000000     0.191400000000     0          
O10      O      0.092500000000     0.712800000000     0.193600000000     0          
O12?     O      0.050810000000     0.571310000000     0.467570000000     0          
Zr1      Zr     0.515640000000     0.981230000000     0.591860000000     0          
O3       O      0.506490000000     0.900670000000     0.618690000000     0          
O4       O      0.484520000000     0.852820000000     0.548920000000     0          
O5       O      0.461500000000     0.616580000000     0.906530000000     0          
O6       O      0.462990000000     0.545670000000     0.855100000000     0          
C1       C      0.462900000000     0.736490000000     0.698770000000     0          
C2       C      0.458000000000     0.727140000000     0.645960000000     0          
H1       H      0.448400000000     0.694900000000     0.634200000000     0          
C3       C      0.467700000000     0.766530000000     0.611480000000     0          
H2       H      0.464500000000     0.761100000000     0.576400000000     0          
C4       C      0.482200000000     0.814630000000     0.630640000000     0          
C5       C      0.484100000000     0.821880000000     0.683800000000     0          
H3       H      0.492300000000     0.854200000000     0.696400000000     0          
C6       C      0.457600000000     0.696860000000     0.738310000000     0          
C7       C      0.446600000000     0.645560000000     0.728310000000     0          
H4       H      0.438200000000     0.635200000000     0.695200000000     0          
C8       C      0.448200000000     0.609930000000     0.767860000000     0          
H5       H      0.444300000000     0.575000000000     0.761500000000     0          
C9       C      0.456010000000     0.628490000000     0.817820000000     0          
C10      C      0.463800000000     0.680820000000     0.825350000000     0          
H6       H      0.468100000000     0.692800000000     0.858700000000     0          
C11      C      0.491970000000     0.859590000000     0.596550000000     0          
C12      C      0.460200000000     0.593740000000     0.863160000000     0          
N1       N      0.474400000000     0.783810000000     0.717440000000     0          
N2       N      0.465200000000     0.714660000000     0.786520000000     0          
Cr1      Cr     0.477840000000     0.793680000000     0.797410000000     0          
C13      C      0.486400000000     0.792500000000     0.867500000000     0          
C14      C      0.484500000000     0.864000000000     0.798400000000     0          
C15      C      0.410400000000     0.806700000000     0.804100000000     0          
C16      C      0.545700000000     0.786600000000     0.799300000000     0          
O7       O      0.492800000000     0.793600000000     0.911800000000     0          
O8       O      0.488400000000     0.908800000000     0.799500000000     0          
O9       O      0.363400000000     0.821000000000     0.808600000000     0          
O10      O      0.592500000000     0.787200000000     0.806400000000     0          
O12?     O      0.550810000000     0.928690000000     0.532430000000     0          
Zr1      Zr     0.984360000000     0.018770000000     0.091860000000     0          
O3       O      0.993510000000     0.099330000000     0.118690000000     0          
O4       O      0.015480000000     0.147180000000     0.048920000000     0          
O5       O      0.038500000000     0.383420000000     0.406530000000     0          
O6       O      0.037010000000     0.454330000000     0.355100000000     0          
C1       C      0.037100000000     0.263510000000     0.198770000000     0          
C2       C      0.042000000000     0.272860000000     0.145960000000     0          
H1       H      0.051600000000     0.305100000000     0.134200000000     0          
C3       C      0.032300000000     0.233470000000     0.111480000000     0          
H2       H      0.035500000000     0.238900000000     0.076400000000     0          
C4       C      0.017800000000     0.185370000000     0.130640000000     0          
C5       C      0.015900000000     0.178120000000     0.183800000000     0          
H3       H      0.007700000000     0.145800000000     0.196400000000     0          
C6       C      0.042400000000     0.303140000000     0.238310000000     0          
C7       C      0.053400000000     0.354440000000     0.228310000000     0          
H4       H      0.061800000000     0.364800000000     0.195200000000     0          
C8       C      0.051800000000     0.390070000000     0.267860000000     0          
H5       H      0.055700000000     0.425000000000     0.261500000000     0          
C9       C      0.043990000000     0.371510000000     0.317820000000     0          
C10      C      0.036200000000     0.319180000000     0.325350000000     0          
H6       H      0.031900000000     0.307200000000     0.358700000000     0          
C11      C      0.008030000000     0.140410000000     0.096550000000     0          
C12      C      0.039800000000     0.406260000000     0.363160000000     0          
N1       N      0.025600000000     0.216190000000     0.217440000000     0          
N2       N      0.034800000000     0.285340000000     0.286520000000     0          
Cr1      Cr     0.022160000000     0.206320000000     0.297410000000     0          
C13      C      0.013600000000     0.207500000000     0.367500000000     0          
C14      C      0.015500000000     0.136000000000     0.298400000000     0          
C15      C      0.089600000000     0.193300000000     0.304100000000     0          
C16      C      0.954300000000     0.213400000000     0.299300000000     0          
O7       O      0.007200000000     0.206400000000     0.411800000000     0          
O8       O      0.011600000000     0.091200000000     0.299500000000     0          
O9       O      0.136600000000     0.179000000000     0.308600000000     0          
O10      O      0.907500000000     0.212800000000     0.306400000000     0          
O12?     O      0.949190000000     0.071310000000     0.032430000000     0          
Zr1      Zr     0.484360000000     0.481230000000     0.908140000000     0          
O3       O      0.493510000000     0.400670000000     0.881310000000     0          
O4       O      0.515480000000     0.352820000000     0.951080000000     0          
O5       O      0.538500000000     0.116580000000     0.593470000000     0          
O6       O      0.537010000000     0.045670000000     0.644900000000     0          
C1       C      0.537100000000     0.236490000000     0.801230000000     0          
C2       C      0.542000000000     0.227140000000     0.854040000000     0          
H1       H      0.551600000000     0.194900000000     0.865800000000     0          
C3       C      0.532300000000     0.266530000000     0.888520000000     0          
H2       H      0.535500000000     0.261100000000     0.923600000000     0          
C4       C      0.517800000000     0.314630000000     0.869360000000     0          
C5       C      0.515900000000     0.321880000000     0.816200000000     0          
H3       H      0.507700000000     0.354200000000     0.803600000000     0          
C6       C      0.542400000000     0.196860000000     0.761690000000     0          
C7       C      0.553400000000     0.145560000000     0.771690000000     0          
H4       H      0.561800000000     0.135200000000     0.804800000000     0          
C8       C      0.551800000000     0.109930000000     0.732140000000     0          
H5       H      0.555700000000     0.075000000000     0.738500000000     0          
C9       C      0.543990000000     0.128490000000     0.682180000000     0          
C10      C      0.536200000000     0.180820000000     0.674650000000     0          
H6       H      0.531900000000     0.192800000000     0.641300000000     0          
C11      C      0.508030000000     0.359590000000     0.903450000000     0          
C12      C      0.539800000000     0.093740000000     0.636840000000     0          
N1       N      0.525600000000     0.283810000000     0.782560000000     0          
N2       N      0.534800000000     0.214660000000     0.713480000000     0          
Cr1      Cr     0.522160000000     0.293680000000     0.702590000000     0          
C13      C      0.513600000000     0.292500000000     0.632500000000     0          
C14      C      0.515500000000     0.364000000000     0.701600000000     0          
C15      C      0.589600000000     0.306700000000     0.695900000000     0          
C16      C      0.454300000000     0.286600000000     0.700700000000     0          
O7       O      0.507200000000     0.293600000000     0.588200000000     0          
O8       O      0.511600000000     0.408800000000     0.700500000000     0          
O9       O      0.636600000000     0.321000000000     0.691400000000     0          
O10      O      0.407500000000     0.287200000000     0.693600000000     0          
O12?     O      0.449190000000     0.428690000000     0.967570000000     0          


