data_RAZVOG01

_audit_creation_method RASPA-1.0
_audit_creation_date 2020-11-2
_audit_author_name 'Rocio Bueno-Perez'

_cell_length_a    29.3907
_cell_length_b    29.3907
_cell_length_c    29.3907
_cell_angle_alpha 90
_cell_angle_beta  90
_cell_angle_gamma 90
_cell_volume      25388.1

_symmetry_cell_setting          triclinic
_symmetry_space_group_name_Hall 'P 1'
_symmetry_space_group_name_H-M  'P 1'
_symmetry_Int_Tables_number     1

_symmetry_equiv_pos_as_xyz 'x,y,z'

loop_
_atom_site_label
_atom_site_type_symbol
_atom_site_fract_x
_atom_site_fract_y
_atom_site_fract_z
_atom_site_charge
Zr1      Zr     0.500000000000     0.000000000000     0.083540000000     0          
Zr2      Zr     0.500000000000     0.500000000000     0.583540000000     0          
Zr3      Zr     0.000000000000     0.000000000000     0.583540000000     0          
Zr4      Zr     0.500000000000     0.000000000000     0.916460000000     0          
Zr5      Zr     0.500000000000     0.500000000000     0.416460000000     0          
Zr6      Zr     0.000000000000     0.500000000000     0.916460000000     0          
Zr7      Zr     0.083540000000     0.500000000000     0.000000000000     0          
Zr8      Zr     0.583540000000     0.500000000000     0.500000000000     0          
Zr9      Zr     0.583540000000     0.000000000000     0.000000000000     0          
Zr10     Zr     0.916460000000     0.500000000000     0.000000000000     0          
Zr11     Zr     0.916460000000     0.000000000000     0.500000000000     0          
Zr12     Zr     0.416460000000     0.500000000000     0.500000000000     0          
Zr13     Zr     0.000000000000     0.083540000000     0.500000000000     0          
Zr14     Zr     0.000000000000     0.583540000000     0.000000000000     0          
Zr15     Zr     0.500000000000     0.583540000000     0.500000000000     0          
Zr16     Zr     0.500000000000     0.083540000000     0.000000000000     0          
Zr17     Zr     0.000000000000     0.916460000000     0.500000000000     0          
Zr18     Zr     0.000000000000     0.416460000000     0.000000000000     0          
Zr19     Zr     0.000000000000     0.000000000000     0.416460000000     0          
Zr20     Zr     0.000000000000     0.500000000000     0.083540000000     0          
Zr21     Zr     0.500000000000     0.916460000000     0.000000000000     0          
Zr22     Zr     0.500000000000     0.416460000000     0.500000000000     0          
Zr23     Zr     0.083540000000     0.000000000000     0.500000000000     0          
Zr24     Zr     0.416460000000     0.000000000000     0.000000000000     0          
O25      O      0.458900000000     0.041100000000     0.041100000000     0          
O26      O      0.458900000000     0.541100000000     0.541100000000     0          
O27      O      0.541100000000     0.958900000000     0.041100000000     0          
O28      O      0.541100000000     0.458900000000     0.541100000000     0          
O29      O      0.041100000000     0.458900000000     0.041100000000     0          
O30      O      0.541100000000     0.041100000000     0.958900000000     0          
O31      O      0.541100000000     0.541100000000     0.458900000000     0          
O32      O      0.041100000000     0.041100000000     0.458900000000     0          
O33      O      0.458900000000     0.958900000000     0.958900000000     0          
O34      O      0.458900000000     0.458900000000     0.458900000000     0          
O35      O      0.041100000000     0.541100000000     0.958900000000     0          
O36      O      0.958900000000     0.541100000000     0.041100000000     0          
O37      O      0.958900000000     0.458900000000     0.958900000000     0          
O38      O      0.958900000000     0.041100000000     0.541100000000     0          
O39      O      0.041100000000     0.958900000000     0.541100000000     0          
O40      O      0.958900000000     0.958900000000     0.458900000000     0          
O41      O      0.041100000000     0.458900000000     0.958900000000     0          
O42      O      0.958900000000     0.541100000000     0.958900000000     0          
O43      O      0.958900000000     0.041100000000     0.458900000000     0          
O44      O      0.458900000000     0.041100000000     0.958900000000     0          
O45      O      0.041100000000     0.541100000000     0.041100000000     0          
O46      O      0.958900000000     0.458900000000     0.041100000000     0          
O47      O      0.458900000000     0.458900000000     0.541100000000     0          
O48      O      0.458900000000     0.541100000000     0.458900000000     0          
O49      O      0.541100000000     0.041100000000     0.041100000000     0          
O50      O      0.541100000000     0.541100000000     0.541100000000     0          
O51      O      0.541100000000     0.958900000000     0.958900000000     0          
O52      O      0.541100000000     0.458900000000     0.458900000000     0          
O53      O      0.041100000000     0.958900000000     0.458900000000     0          
O54      O      0.458900000000     0.958900000000     0.041100000000     0          
O55      O      0.041100000000     0.041100000000     0.541100000000     0          
O56      O      0.958900000000     0.958900000000     0.541100000000     0          
O57      O      0.436600000000     0.000000000000     0.120900000000     0          
O58      O      0.436600000000     0.500000000000     0.620900000000     0          
C59      C      0.352200000000     0.500000000000     0.725000000000     0          
C60      C      0.377500000000     0.500000000000     0.684600000000     0          
C61      C      0.288900000000     0.500000000000     0.674400000000     0          
C62      C      0.305000000000     0.500000000000     0.719100000000     0          
C63      C      0.312700000000     0.500000000000     0.633600000000     0          
C64      C      0.271220000000     0.500000000000     0.754000000000     0          
H65      H      0.370380000000     0.500000000000     0.759270000000     0          
H66      H      0.250720000000     0.500000000000     0.667540000000     0          
H67      H      0.293460000000     0.500000000000     0.599920000000     0          
O68      O      0.936600000000     0.000000000000     0.620900000000     0          
O69      O      0.936600000000     0.500000000000     0.120900000000     0          
C70      C      0.852200000000     0.500000000000     0.225000000000     0          
C71      C      0.877500000000     0.500000000000     0.184600000000     0          
C72      C      0.788900000000     0.500000000000     0.174400000000     0          
C73      C      0.805000000000     0.500000000000     0.219100000000     0          
C74      C      0.812700000000     0.500000000000     0.133600000000     0          
C75      C      0.771220000000     0.500000000000     0.254000000000     0          
H76      H      0.870380000000     0.500000000000     0.259270000000     0          
H77      H      0.750720000000     0.500000000000     0.167540000000     0          
H78      H      0.793460000000     0.500000000000     0.099920000000     0          
O79      O      0.563400000000     0.000000000000     0.120900000000     0          
O80      O      0.563400000000     0.500000000000     0.620900000000     0          
O81      O      0.063400000000     0.000000000000     0.620900000000     0          
O82      O      0.063400000000     0.500000000000     0.120900000000     0          
O83      O      0.563400000000     0.000000000000     0.879100000000     0          
O84      O      0.563400000000     0.500000000000     0.379100000000     0          
C85      C      0.647800000000     0.500000000000     0.275000000000     0          
C86      C      0.622500000000     0.500000000000     0.315400000000     0          
C87      C      0.711100000000     0.500000000000     0.325600000000     0          
C88      C      0.695000000000     0.500000000000     0.280900000000     0          
C89      C      0.687300000000     0.500000000000     0.366400000000     0          
C90      C      0.728780000000     0.500000000000     0.246000000000     0          
H91      H      0.629620000000     0.500000000000     0.240730000000     0          
H92      H      0.583740000000     0.500000000000     0.314010000000     0          
H93      H      0.749280000000     0.500000000000     0.332460000000     0          
H94      H      0.706540000000     0.500000000000     0.400080000000     0          
O95      O      0.063400000000     0.000000000000     0.379100000000     0          
O96      O      0.063400000000     0.500000000000     0.879100000000     0          
C97      C      0.147800000000     0.500000000000     0.775000000000     0          
C98      C      0.122500000000     0.500000000000     0.815400000000     0          
C99      C      0.211100000000     0.500000000000     0.825600000000     0          
C100     C      0.195000000000     0.500000000000     0.780900000000     0          
C101     C      0.187300000000     0.500000000000     0.866400000000     0          
C102     C      0.228780000000     0.500000000000     0.746000000000     0          
H103     H      0.129620000000     0.500000000000     0.740730000000     0          
H104     H      0.083740000000     0.500000000000     0.814010000000     0          
H105     H      0.249280000000     0.500000000000     0.832460000000     0          
H106     H      0.206540000000     0.500000000000     0.900080000000     0          
O107     O      0.436600000000     0.000000000000     0.879100000000     0          
O108     O      0.436600000000     0.500000000000     0.379100000000     0          
O109     O      0.936600000000     0.000000000000     0.379100000000     0          
H110     H      0.900080000000     0.000000000000     0.293460000000     0          
O111     O      0.936600000000     0.500000000000     0.879100000000     0          
O112     O      0.120900000000     0.436600000000     0.000000000000     0          
C113     C      0.225000000000     0.352200000000     0.000000000000     0          
C114     C      0.184600000000     0.377500000000     0.000000000000     0          
C115     C      0.174400000000     0.288900000000     0.000000000000     0          
C116     C      0.219100000000     0.305000000000     0.000000000000     0          
C117     C      0.133600000000     0.312700000000     0.000000000000     0          
C118     C      0.254000000000     0.271220000000     0.000000000000     0          
H119     H      0.259270000000     0.370380000000     0.000000000000     0          
H120     H      0.185990000000     0.416260000000     0.000000000000     0          
H121     H      0.167540000000     0.250720000000     0.000000000000     0          
H122     H      0.099920000000     0.293460000000     0.000000000000     0          
O123     O      0.120900000000     0.936600000000     0.500000000000     0          
O124     O      0.620900000000     0.436600000000     0.500000000000     0          
O125     O      0.620900000000     0.936600000000     0.000000000000     0          
C126     C      0.725000000000     0.852200000000     0.000000000000     0          
C127     C      0.684600000000     0.877500000000     0.000000000000     0          
C128     C      0.674400000000     0.788900000000     0.000000000000     0          
C129     C      0.719100000000     0.805000000000     0.000000000000     0          
C130     C      0.633600000000     0.812700000000     0.000000000000     0          
C131     C      0.754000000000     0.771220000000     0.000000000000     0          
H132     H      0.759270000000     0.870380000000     0.000000000000     0          
H133     H      0.685990000000     0.916260000000     0.000000000000     0          
H134     H      0.667540000000     0.750720000000     0.000000000000     0          
H135     H      0.599920000000     0.793460000000     0.000000000000     0          
O136     O      0.120900000000     0.563400000000     0.000000000000     0          
O137     O      0.120900000000     0.063400000000     0.500000000000     0          
O138     O      0.620900000000     0.563400000000     0.500000000000     0          
C139     C      0.725000000000     0.647800000000     0.500000000000     0          
C140     C      0.684600000000     0.622500000000     0.500000000000     0          
C141     C      0.674400000000     0.711100000000     0.500000000000     0          
C142     C      0.719100000000     0.695000000000     0.500000000000     0          
C143     C      0.633600000000     0.687300000000     0.500000000000     0          
C144     C      0.754000000000     0.728780000000     0.500000000000     0          
H145     H      0.759270000000     0.629620000000     0.500000000000     0          
H146     H      0.667540000000     0.749280000000     0.500000000000     0          
H147     H      0.599920000000     0.706540000000     0.500000000000     0          
O148     O      0.620900000000     0.063400000000     0.000000000000     0          
O149     O      0.879100000000     0.563400000000     0.000000000000     0          
C150     C      0.775000000000     0.647800000000     0.000000000000     0          
C151     C      0.815400000000     0.622500000000     0.000000000000     0          
C152     C      0.825600000000     0.711100000000     0.000000000000     0          
C153     C      0.780900000000     0.695000000000     0.000000000000     0          
C154     C      0.866400000000     0.687300000000     0.000000000000     0          
C155     C      0.746000000000     0.728780000000     0.000000000000     0          
H156     H      0.740730000000     0.629620000000     0.000000000000     0          
H157     H      0.814010000000     0.583740000000     0.000000000000     0          
H158     H      0.832460000000     0.749280000000     0.000000000000     0          
H159     H      0.900080000000     0.706540000000     0.000000000000     0          
O160     O      0.879100000000     0.063400000000     0.500000000000     0          
O161     O      0.379100000000     0.563400000000     0.500000000000     0          
O162     O      0.379100000000     0.063400000000     0.000000000000     0          
C163     C      0.275000000000     0.147800000000     0.000000000000     0          
C164     C      0.315400000000     0.122500000000     0.000000000000     0          
C165     C      0.325600000000     0.211100000000     0.000000000000     0          
C166     C      0.280900000000     0.195000000000     0.000000000000     0          
C167     C      0.366400000000     0.187300000000     0.000000000000     0          
C168     C      0.246000000000     0.228780000000     0.000000000000     0          
H169     H      0.240730000000     0.129620000000     0.000000000000     0          
H170     H      0.314010000000     0.083740000000     0.000000000000     0          
H171     H      0.332460000000     0.249280000000     0.000000000000     0          
H172     H      0.400080000000     0.206540000000     0.000000000000     0          
O173     O      0.879100000000     0.436600000000     0.000000000000     0          
O174     O      0.879100000000     0.936600000000     0.500000000000     0          
C175     C      0.775000000000     0.852200000000     0.500000000000     0          
C176     C      0.815400000000     0.877500000000     0.500000000000     0          
C177     C      0.825600000000     0.788900000000     0.500000000000     0          
C178     C      0.780900000000     0.805000000000     0.500000000000     0          
C179     C      0.866400000000     0.812700000000     0.500000000000     0          
C180     C      0.746000000000     0.771220000000     0.500000000000     0          
H181     H      0.740730000000     0.870380000000     0.500000000000     0          
H182     H      0.832460000000     0.750720000000     0.500000000000     0          
H183     H      0.900080000000     0.793460000000     0.500000000000     0          
O184     O      0.379100000000     0.436600000000     0.500000000000     0          
O185     O      0.379100000000     0.936600000000     0.000000000000     0          
H186     H      0.416260000000     0.814010000000     0.000000000000     0          
O187     O      0.000000000000     0.120900000000     0.436600000000     0          
C188     C      0.000000000000     0.225000000000     0.352200000000     0          
C189     C      0.000000000000     0.184600000000     0.377500000000     0          
C190     C      0.000000000000     0.174400000000     0.288900000000     0          
C191     C      0.000000000000     0.219100000000     0.305000000000     0          
C192     C      0.000000000000     0.133600000000     0.312700000000     0          
C193     C      0.000000000000     0.254000000000     0.271220000000     0          
H194     H      0.000000000000     0.259270000000     0.370380000000     0          
H195     H      0.000000000000     0.185990000000     0.416260000000     0          
H196     H      0.000000000000     0.167540000000     0.250720000000     0          
O197     O      0.000000000000     0.620900000000     0.936600000000     0          
C198     C      0.000000000000     0.725000000000     0.852200000000     0          
C199     C      0.000000000000     0.684600000000     0.877500000000     0          
C200     C      0.000000000000     0.674400000000     0.788900000000     0          
C201     C      0.000000000000     0.719100000000     0.805000000000     0          
C202     C      0.000000000000     0.633600000000     0.812700000000     0          
C203     C      0.000000000000     0.754000000000     0.771220000000     0          
H204     H      0.000000000000     0.759270000000     0.870380000000     0          
H205     H      0.000000000000     0.667540000000     0.750720000000     0          
H206     H      0.000000000000     0.599920000000     0.793460000000     0          
O207     O      0.500000000000     0.120900000000     0.936600000000     0          
O208     O      0.500000000000     0.620900000000     0.436600000000     0          
O209     O      0.000000000000     0.120900000000     0.563400000000     0          
C210     C      0.000000000000     0.225000000000     0.647800000000     0          
C211     C      0.000000000000     0.184600000000     0.622500000000     0          
C212     C      0.000000000000     0.174400000000     0.711100000000     0          
C213     C      0.000000000000     0.219100000000     0.695000000000     0          
C214     C      0.000000000000     0.133600000000     0.687300000000     0          
C215     C      0.000000000000     0.254000000000     0.728780000000     0          
H216     H      0.000000000000     0.259270000000     0.629620000000     0          
H217     H      0.000000000000     0.185990000000     0.583740000000     0          
H218     H      0.000000000000     0.167540000000     0.749280000000     0          
H219     H      0.000000000000     0.099920000000     0.706540000000     0          
O220     O      0.000000000000     0.620900000000     0.063400000000     0          
C221     C      0.000000000000     0.725000000000     0.147800000000     0          
C222     C      0.000000000000     0.684600000000     0.122500000000     0          
C223     C      0.000000000000     0.674400000000     0.211100000000     0          
C224     C      0.000000000000     0.719100000000     0.195000000000     0          
C225     C      0.000000000000     0.633600000000     0.187300000000     0          
C226     C      0.000000000000     0.754000000000     0.228780000000     0          
H227     H      0.000000000000     0.759270000000     0.129620000000     0          
H228     H      0.000000000000     0.667540000000     0.249280000000     0          
H229     H      0.000000000000     0.599920000000     0.206540000000     0          
O230     O      0.500000000000     0.120900000000     0.063400000000     0          
C231     C      0.500000000000     0.225000000000     0.147800000000     0          
C232     C      0.500000000000     0.184600000000     0.122500000000     0          
C233     C      0.500000000000     0.174400000000     0.211100000000     0          
C234     C      0.500000000000     0.219100000000     0.195000000000     0          
C235     C      0.500000000000     0.133600000000     0.187300000000     0          
C236     C      0.500000000000     0.254000000000     0.228780000000     0          
H237     H      0.500000000000     0.259270000000     0.129620000000     0          
H238     H      0.500000000000     0.185990000000     0.083740000000     0          
H239     H      0.500000000000     0.167540000000     0.249280000000     0          
H240     H      0.500000000000     0.099920000000     0.206540000000     0          
O241     O      0.500000000000     0.620900000000     0.563400000000     0          
C242     C      0.500000000000     0.725000000000     0.647800000000     0          
C243     C      0.500000000000     0.684600000000     0.622500000000     0          
C244     C      0.500000000000     0.674400000000     0.711100000000     0          
C245     C      0.500000000000     0.719100000000     0.695000000000     0          
C246     C      0.500000000000     0.633600000000     0.687300000000     0          
C247     C      0.500000000000     0.754000000000     0.728780000000     0          
H248     H      0.500000000000     0.759270000000     0.629620000000     0          
H249     H      0.500000000000     0.685990000000     0.583740000000     0          
H250     H      0.500000000000     0.667540000000     0.749280000000     0          
H251     H      0.500000000000     0.599920000000     0.706540000000     0          
O252     O      0.000000000000     0.879100000000     0.563400000000     0          
C253     C      0.000000000000     0.775000000000     0.647800000000     0          
C254     C      0.000000000000     0.815400000000     0.622500000000     0          
C255     C      0.000000000000     0.825600000000     0.711100000000     0          
C256     C      0.000000000000     0.780900000000     0.695000000000     0          
C257     C      0.000000000000     0.866400000000     0.687300000000     0          
C258     C      0.000000000000     0.746000000000     0.728780000000     0          
H259     H      0.000000000000     0.740730000000     0.629620000000     0          
H260     H      0.000000000000     0.832460000000     0.749280000000     0          
H261     H      0.000000000000     0.900080000000     0.706540000000     0          
O262     O      0.000000000000     0.379100000000     0.063400000000     0          
C263     C      0.000000000000     0.275000000000     0.147800000000     0          
C264     C      0.000000000000     0.315400000000     0.122500000000     0          
C265     C      0.000000000000     0.325600000000     0.211100000000     0          
C266     C      0.000000000000     0.280900000000     0.195000000000     0          
C267     C      0.000000000000     0.366400000000     0.187300000000     0          
C268     C      0.000000000000     0.246000000000     0.228780000000     0          
H269     H      0.000000000000     0.240730000000     0.129620000000     0          
H270     H      0.000000000000     0.332460000000     0.249280000000     0          
H271     H      0.000000000000     0.400080000000     0.206540000000     0          
O272     O      0.500000000000     0.879100000000     0.063400000000     0          
O273     O      0.500000000000     0.379100000000     0.563400000000     0          
O274     O      0.000000000000     0.879100000000     0.436600000000     0          
C275     C      0.000000000000     0.775000000000     0.352200000000     0          
C276     C      0.000000000000     0.815400000000     0.377500000000     0          
C277     C      0.000000000000     0.825600000000     0.288900000000     0          
C278     C      0.000000000000     0.780900000000     0.305000000000     0          
C279     C      0.000000000000     0.866400000000     0.312700000000     0          
C280     C      0.000000000000     0.746000000000     0.271220000000     0          
H281     H      0.000000000000     0.740730000000     0.370380000000     0          
H282     H      0.000000000000     0.832460000000     0.250720000000     0          
H283     H      0.000000000000     0.900080000000     0.293460000000     0          
O284     O      0.000000000000     0.379100000000     0.936600000000     0          
C285     C      0.000000000000     0.275000000000     0.852200000000     0          
C286     C      0.000000000000     0.315400000000     0.877500000000     0          
C287     C      0.000000000000     0.325600000000     0.788900000000     0          
C288     C      0.000000000000     0.280900000000     0.805000000000     0          
C289     C      0.000000000000     0.366400000000     0.812700000000     0          
C290     C      0.000000000000     0.246000000000     0.771220000000     0          
H291     H      0.000000000000     0.240730000000     0.870380000000     0          
H292     H      0.000000000000     0.400080000000     0.793460000000     0          
O293     O      0.500000000000     0.879100000000     0.936600000000     0          
C294     C      0.500000000000     0.775000000000     0.852200000000     0          
C295     C      0.500000000000     0.815400000000     0.877500000000     0          
C296     C      0.500000000000     0.825600000000     0.788900000000     0          
C297     C      0.500000000000     0.780900000000     0.805000000000     0          
C298     C      0.500000000000     0.866400000000     0.812700000000     0          
C299     C      0.500000000000     0.746000000000     0.771220000000     0          
H300     H      0.500000000000     0.740730000000     0.870380000000     0          
H301     H      0.500000000000     0.832460000000     0.750720000000     0          
H302     H      0.500000000000     0.900080000000     0.793460000000     0          
O303     O      0.500000000000     0.379100000000     0.436600000000     0          
C304     C      0.500000000000     0.275000000000     0.352200000000     0          
C305     C      0.500000000000     0.315400000000     0.377500000000     0          
C306     C      0.500000000000     0.325600000000     0.288900000000     0          
C307     C      0.500000000000     0.280900000000     0.305000000000     0          
C308     C      0.500000000000     0.366400000000     0.312700000000     0          
C309     C      0.500000000000     0.246000000000     0.271220000000     0          
H310     H      0.500000000000     0.245400000000     0.366100000000     0          
H311     H      0.500000000000     0.314010000000     0.416260000000     0          
H312     H      0.500000000000     0.332460000000     0.250720000000     0          
H313     H      0.500000000000     0.400080000000     0.293460000000     0          
O314     O      0.000000000000     0.436600000000     0.879100000000     0          
O315     O      0.000000000000     0.936600000000     0.379100000000     0          
H316     H      0.000000000000     0.814010000000     0.416260000000     0          
O317     O      0.500000000000     0.436600000000     0.379100000000     0          
O318     O      0.500000000000     0.936600000000     0.879100000000     0          
O319     O      0.000000000000     0.563400000000     0.879100000000     0          
H320     H      0.000000000000     0.701000000000     0.896100000000     0          
O321     O      0.000000000000     0.063400000000     0.379100000000     0          
H322     H      0.000000000000     0.099920000000     0.293460000000     0          
O323     O      0.500000000000     0.563400000000     0.379100000000     0          
C324     C      0.500000000000     0.647800000000     0.275000000000     0          
C325     C      0.500000000000     0.622500000000     0.315400000000     0          
C326     C      0.500000000000     0.711100000000     0.325600000000     0          
C327     C      0.500000000000     0.695000000000     0.280900000000     0          
C328     C      0.500000000000     0.687300000000     0.366400000000     0          
C329     C      0.500000000000     0.728780000000     0.246000000000     0          
H330     H      0.500000000000     0.629620000000     0.240730000000     0          
H331     H      0.500000000000     0.583740000000     0.314010000000     0          
H332     H      0.500000000000     0.749280000000     0.332460000000     0          
H333     H      0.500000000000     0.706540000000     0.400080000000     0          
O334     O      0.500000000000     0.063400000000     0.879100000000     0          
C335     C      0.500000000000     0.147800000000     0.775000000000     0          
C336     C      0.500000000000     0.122500000000     0.815400000000     0          
C337     C      0.500000000000     0.211100000000     0.825600000000     0          
C338     C      0.500000000000     0.195000000000     0.780900000000     0          
C339     C      0.500000000000     0.187300000000     0.866400000000     0          
C340     C      0.500000000000     0.228780000000     0.746000000000     0          
H341     H      0.500000000000     0.129620000000     0.740730000000     0          
H342     H      0.500000000000     0.083740000000     0.814010000000     0          
H343     H      0.500000000000     0.249280000000     0.832460000000     0          
H344     H      0.500000000000     0.206540000000     0.900080000000     0          
O345     O      0.000000000000     0.563400000000     0.120900000000     0          
O346     O      0.000000000000     0.063400000000     0.620900000000     0          
O347     O      0.500000000000     0.563400000000     0.620900000000     0          
O348     O      0.500000000000     0.063400000000     0.120900000000     0          
O349     O      0.000000000000     0.436600000000     0.120900000000     0          
O350     O      0.000000000000     0.936600000000     0.620900000000     0          
O351     O      0.500000000000     0.436600000000     0.620900000000     0          
C352     C      0.500000000000     0.352200000000     0.725000000000     0          
C353     C      0.500000000000     0.377500000000     0.684600000000     0          
C354     C      0.500000000000     0.288900000000     0.674400000000     0          
C355     C      0.500000000000     0.305000000000     0.719100000000     0          
C356     C      0.500000000000     0.312700000000     0.633600000000     0          
C357     C      0.500000000000     0.271220000000     0.754000000000     0          
H358     H      0.500000000000     0.370380000000     0.759270000000     0          
H359     H      0.500000000000     0.416260000000     0.685990000000     0          
H360     H      0.500000000000     0.250720000000     0.667540000000     0          
H361     H      0.500000000000     0.293460000000     0.599920000000     0          
O362     O      0.500000000000     0.936600000000     0.120900000000     0          
C363     C      0.500000000000     0.852200000000     0.225000000000     0          
C364     C      0.500000000000     0.877500000000     0.184600000000     0          
C365     C      0.500000000000     0.788900000000     0.174400000000     0          
C366     C      0.500000000000     0.805000000000     0.219100000000     0          
C367     C      0.500000000000     0.812700000000     0.133600000000     0          
C368     C      0.500000000000     0.771220000000     0.254000000000     0          
H369     H      0.500000000000     0.870380000000     0.259270000000     0          
H370     H      0.500000000000     0.916260000000     0.185990000000     0          
H371     H      0.500000000000     0.750720000000     0.167540000000     0          
H372     H      0.500000000000     0.793460000000     0.099920000000     0          
O373     O      0.436600000000     0.120900000000     0.000000000000     0          
O374     O      0.436600000000     0.620900000000     0.500000000000     0          
C375     C      0.352200000000     0.725000000000     0.500000000000     0          
C376     C      0.377500000000     0.684600000000     0.500000000000     0          
C377     C      0.288900000000     0.674400000000     0.500000000000     0          
C378     C      0.305000000000     0.719100000000     0.500000000000     0          
C379     C      0.312700000000     0.633600000000     0.500000000000     0          
C380     C      0.271220000000     0.754000000000     0.500000000000     0          
H381     H      0.370380000000     0.759270000000     0.500000000000     0          
H382     H      0.416260000000     0.685990000000     0.500000000000     0          
H383     H      0.293460000000     0.599920000000     0.500000000000     0          
O384     O      0.936600000000     0.120900000000     0.500000000000     0          
C385     C      0.852200000000     0.225000000000     0.500000000000     0          
C386     C      0.877500000000     0.184600000000     0.500000000000     0          
C387     C      0.788900000000     0.174400000000     0.500000000000     0          
C388     C      0.805000000000     0.219100000000     0.500000000000     0          
C389     C      0.812700000000     0.133600000000     0.500000000000     0          
C390     C      0.771220000000     0.254000000000     0.500000000000     0          
H391     H      0.870380000000     0.259270000000     0.500000000000     0          
H392     H      0.916260000000     0.185990000000     0.500000000000     0          
H393     H      0.750720000000     0.167540000000     0.500000000000     0          
O394     O      0.936600000000     0.620900000000     0.000000000000     0          
O395     O      0.563400000000     0.120900000000     0.000000000000     0          
C396     C      0.647800000000     0.225000000000     0.000000000000     0          
C397     C      0.622500000000     0.184600000000     0.000000000000     0          
C398     C      0.711100000000     0.174400000000     0.000000000000     0          
C399     C      0.695000000000     0.219100000000     0.000000000000     0          
C400     C      0.687300000000     0.133600000000     0.000000000000     0          
C401     C      0.728780000000     0.254000000000     0.000000000000     0          
H402     H      0.629620000000     0.259270000000     0.000000000000     0          
H403     H      0.583740000000     0.185990000000     0.000000000000     0          
H404     H      0.749280000000     0.167540000000     0.000000000000     0          
H405     H      0.706540000000     0.099920000000     0.000000000000     0          
O406     O      0.563400000000     0.620900000000     0.500000000000     0          
O407     O      0.063400000000     0.120900000000     0.500000000000     0          
C408     C      0.147800000000     0.225000000000     0.500000000000     0          
C409     C      0.122500000000     0.184600000000     0.500000000000     0          
C410     C      0.211100000000     0.174400000000     0.500000000000     0          
C411     C      0.195000000000     0.219100000000     0.500000000000     0          
C412     C      0.187300000000     0.133600000000     0.500000000000     0          
C413     C      0.228780000000     0.254000000000     0.500000000000     0          
H414     H      0.129620000000     0.259270000000     0.500000000000     0          
H415     H      0.249280000000     0.167540000000     0.500000000000     0          
H416     H      0.206540000000     0.099920000000     0.500000000000     0          
O417     O      0.063400000000     0.620900000000     0.000000000000     0          
C418     C      0.147800000000     0.725000000000     0.000000000000     0          
C419     C      0.122500000000     0.684600000000     0.000000000000     0          
C420     C      0.211100000000     0.674400000000     0.000000000000     0          
C421     C      0.195000000000     0.719100000000     0.000000000000     0          
C422     C      0.187300000000     0.633600000000     0.000000000000     0          
C423     C      0.228780000000     0.754000000000     0.000000000000     0          
H424     H      0.129620000000     0.759270000000     0.000000000000     0          
H425     H      0.083740000000     0.685990000000     0.000000000000     0          
H426     H      0.249280000000     0.667540000000     0.000000000000     0          
H427     H      0.206540000000     0.599920000000     0.000000000000     0          
O428     O      0.563400000000     0.879100000000     0.000000000000     0          
O429     O      0.563400000000     0.379100000000     0.500000000000     0          
C430     C      0.647800000000     0.275000000000     0.500000000000     0          
C431     C      0.622500000000     0.315400000000     0.500000000000     0          
C432     C      0.711100000000     0.325600000000     0.500000000000     0          
C433     C      0.695000000000     0.280900000000     0.500000000000     0          
C434     C      0.687300000000     0.366400000000     0.500000000000     0          
C435     C      0.728780000000     0.246000000000     0.500000000000     0          
H436     H      0.629620000000     0.240730000000     0.500000000000     0          
H437     H      0.749280000000     0.332460000000     0.500000000000     0          
H438     H      0.706540000000     0.400080000000     0.500000000000     0          
O439     O      0.063400000000     0.879100000000     0.500000000000     0          
C440     C      0.147800000000     0.775000000000     0.500000000000     0          
C441     C      0.122500000000     0.815400000000     0.500000000000     0          
C442     C      0.211100000000     0.825600000000     0.500000000000     0          
C443     C      0.195000000000     0.780900000000     0.500000000000     0          
C444     C      0.187300000000     0.866400000000     0.500000000000     0          
C445     C      0.228780000000     0.746000000000     0.500000000000     0          
H446     H      0.129620000000     0.740730000000     0.500000000000     0          
H447     H      0.206540000000     0.900080000000     0.500000000000     0          
O448     O      0.063400000000     0.379100000000     0.000000000000     0          
O449     O      0.436600000000     0.879100000000     0.000000000000     0          
C450     C      0.352200000000     0.775000000000     0.000000000000     0          
C451     C      0.377500000000     0.815400000000     0.000000000000     0          
C452     C      0.288900000000     0.825600000000     0.000000000000     0          
C453     C      0.305000000000     0.780900000000     0.000000000000     0          
C454     C      0.312700000000     0.866400000000     0.000000000000     0          
C455     C      0.271220000000     0.746000000000     0.000000000000     0          
H456     H      0.370380000000     0.740730000000     0.000000000000     0          
H457     H      0.250720000000     0.832460000000     0.000000000000     0          
H458     H      0.293460000000     0.900080000000     0.000000000000     0          
O459     O      0.436600000000     0.379100000000     0.500000000000     0          
C460     C      0.352200000000     0.275000000000     0.500000000000     0          
C461     C      0.377500000000     0.315400000000     0.500000000000     0          
C462     C      0.288900000000     0.325600000000     0.500000000000     0          
C463     C      0.305000000000     0.280900000000     0.500000000000     0          
C464     C      0.312700000000     0.366400000000     0.500000000000     0          
C465     C      0.271220000000     0.246000000000     0.500000000000     0          
H466     H      0.370380000000     0.240730000000     0.500000000000     0          
H467     H      0.250720000000     0.332460000000     0.500000000000     0          
H468     H      0.293460000000     0.400080000000     0.500000000000     0          
O469     O      0.936600000000     0.879100000000     0.500000000000     0          
H470     H      0.814010000000     0.916260000000     0.500000000000     0          
O471     O      0.936600000000     0.379100000000     0.000000000000     0          
C472     C      0.852200000000     0.275000000000     0.000000000000     0          
C473     C      0.877500000000     0.315400000000     0.000000000000     0          
C474     C      0.788900000000     0.325600000000     0.000000000000     0          
C475     C      0.805000000000     0.280900000000     0.000000000000     0          
C476     C      0.812700000000     0.366400000000     0.000000000000     0          
C477     C      0.771220000000     0.246000000000     0.000000000000     0          
H478     H      0.870380000000     0.240730000000     0.000000000000     0          
H479     H      0.750720000000     0.332460000000     0.000000000000     0          
H480     H      0.793460000000     0.400080000000     0.000000000000     0          
O481     O      0.120900000000     0.000000000000     0.563400000000     0          
C482     C      0.225000000000     0.000000000000     0.647800000000     0          
C483     C      0.184600000000     0.000000000000     0.622500000000     0          
C484     C      0.174400000000     0.000000000000     0.711100000000     0          
C485     C      0.219100000000     0.000000000000     0.695000000000     0          
C486     C      0.133600000000     0.000000000000     0.687300000000     0          
C487     C      0.254000000000     0.000000000000     0.728780000000     0          
H488     H      0.259270000000     0.000000000000     0.629620000000     0          
H489     H      0.185990000000     0.000000000000     0.583740000000     0          
H490     H      0.167540000000     0.000000000000     0.749280000000     0          
H491     H      0.099920000000     0.000000000000     0.706540000000     0          
O492     O      0.120900000000     0.500000000000     0.063400000000     0          
C493     C      0.225000000000     0.500000000000     0.147800000000     0          
C494     C      0.184600000000     0.500000000000     0.122500000000     0          
C495     C      0.174400000000     0.500000000000     0.211100000000     0          
C496     C      0.219100000000     0.500000000000     0.195000000000     0          
C497     C      0.133600000000     0.500000000000     0.187300000000     0          
C498     C      0.254000000000     0.500000000000     0.228780000000     0          
H499     H      0.259270000000     0.500000000000     0.129620000000     0          
H500     H      0.185990000000     0.500000000000     0.083740000000     0          
H501     H      0.167540000000     0.500000000000     0.249280000000     0          
H502     H      0.099920000000     0.500000000000     0.206540000000     0          
O503     O      0.620900000000     0.000000000000     0.063400000000     0          
C504     C      0.725000000000     0.000000000000     0.147800000000     0          
C505     C      0.684600000000     0.000000000000     0.122500000000     0          
C506     C      0.674400000000     0.000000000000     0.211100000000     0          
C507     C      0.719100000000     0.000000000000     0.195000000000     0          
C508     C      0.633600000000     0.000000000000     0.187300000000     0          
C509     C      0.754000000000     0.000000000000     0.228780000000     0          
H510     H      0.759270000000     0.000000000000     0.129620000000     0          
H511     H      0.685990000000     0.000000000000     0.083740000000     0          
H512     H      0.667540000000     0.000000000000     0.249280000000     0          
H513     H      0.599920000000     0.000000000000     0.206540000000     0          
O514     O      0.620900000000     0.500000000000     0.563400000000     0          
C515     C      0.725000000000     0.500000000000     0.647800000000     0          
C516     C      0.684600000000     0.500000000000     0.622500000000     0          
C517     C      0.674400000000     0.500000000000     0.711100000000     0          
C518     C      0.719100000000     0.500000000000     0.695000000000     0          
C519     C      0.633600000000     0.500000000000     0.687300000000     0          
C520     C      0.754000000000     0.500000000000     0.728780000000     0          
H521     H      0.759270000000     0.500000000000     0.629620000000     0          
H522     H      0.685990000000     0.500000000000     0.583740000000     0          
H523     H      0.667540000000     0.500000000000     0.749280000000     0          
H524     H      0.599920000000     0.500000000000     0.706540000000     0          
O525     O      0.120900000000     0.000000000000     0.436600000000     0          
C526     C      0.225000000000     0.000000000000     0.352200000000     0          
C527     C      0.184600000000     0.000000000000     0.377500000000     0          
C528     C      0.174400000000     0.000000000000     0.288900000000     0          
C529     C      0.219100000000     0.000000000000     0.305000000000     0          
C530     C      0.133600000000     0.000000000000     0.312700000000     0          
C531     C      0.254000000000     0.000000000000     0.271220000000     0          
H532     H      0.259270000000     0.000000000000     0.370380000000     0          
H533     H      0.185990000000     0.000000000000     0.416260000000     0          
H534     H      0.167540000000     0.000000000000     0.250720000000     0          
H535     H      0.099920000000     0.000000000000     0.293460000000     0          
O536     O      0.120900000000     0.500000000000     0.936600000000     0          
O537     O      0.620900000000     0.000000000000     0.936600000000     0          
C538     C      0.725000000000     0.000000000000     0.852200000000     0          
C539     C      0.684600000000     0.000000000000     0.877500000000     0          
C540     C      0.674400000000     0.000000000000     0.788900000000     0          
C541     C      0.719100000000     0.000000000000     0.805000000000     0          
C542     C      0.633600000000     0.000000000000     0.812700000000     0          
C543     C      0.754000000000     0.000000000000     0.771220000000     0          
H544     H      0.759270000000     0.000000000000     0.870380000000     0          
H545     H      0.685990000000     0.000000000000     0.916260000000     0          
H546     H      0.667540000000     0.000000000000     0.750720000000     0          
H547     H      0.599920000000     0.000000000000     0.793460000000     0          
O548     O      0.620900000000     0.500000000000     0.436600000000     0          
O549     O      0.879100000000     0.000000000000     0.436600000000     0          
C550     C      0.775000000000     0.000000000000     0.352200000000     0          
C551     C      0.815400000000     0.000000000000     0.377500000000     0          
C552     C      0.825600000000     0.000000000000     0.288900000000     0          
C553     C      0.780900000000     0.000000000000     0.305000000000     0          
C554     C      0.866400000000     0.000000000000     0.312700000000     0          
C555     C      0.746000000000     0.000000000000     0.271220000000     0          
H556     H      0.740730000000     0.000000000000     0.370380000000     0          
H557     H      0.814010000000     0.000000000000     0.416260000000     0          
H558     H      0.832460000000     0.000000000000     0.250720000000     0          
O559     O      0.879100000000     0.500000000000     0.936600000000     0          
C560     C      0.775000000000     0.500000000000     0.852200000000     0          
C561     C      0.815400000000     0.500000000000     0.877500000000     0          
C562     C      0.825600000000     0.500000000000     0.788900000000     0          
C563     C      0.780900000000     0.500000000000     0.805000000000     0          
C564     C      0.866400000000     0.500000000000     0.812700000000     0          
C565     C      0.746000000000     0.500000000000     0.771220000000     0          
H566     H      0.745400000000     0.500000000000     0.866100000000     0          
H567     H      0.814010000000     0.500000000000     0.916260000000     0          
H568     H      0.832460000000     0.500000000000     0.750720000000     0          
H569     H      0.900080000000     0.500000000000     0.793460000000     0          
O570     O      0.379100000000     0.000000000000     0.936600000000     0          
C571     C      0.275000000000     0.000000000000     0.852200000000     0          
C572     C      0.315400000000     0.000000000000     0.877500000000     0          
C573     C      0.325600000000     0.000000000000     0.788900000000     0          
C574     C      0.280900000000     0.000000000000     0.805000000000     0          
C575     C      0.366400000000     0.000000000000     0.812700000000     0          
C576     C      0.246000000000     0.000000000000     0.771220000000     0          
H577     H      0.245400000000     0.000000000000     0.866100000000     0          
H578     H      0.314010000000     0.000000000000     0.916260000000     0          
H579     H      0.332460000000     0.000000000000     0.750720000000     0          
H580     H      0.400080000000     0.000000000000     0.793460000000     0          
O581     O      0.379100000000     0.500000000000     0.436600000000     0          
C582     C      0.275000000000     0.500000000000     0.352200000000     0          
C583     C      0.315400000000     0.500000000000     0.377500000000     0          
C584     C      0.325600000000     0.500000000000     0.288900000000     0          
C585     C      0.280900000000     0.500000000000     0.305000000000     0          
C586     C      0.366400000000     0.500000000000     0.312700000000     0          
C587     C      0.246000000000     0.500000000000     0.271220000000     0          
H588     H      0.240730000000     0.500000000000     0.370380000000     0          
H589     H      0.314010000000     0.500000000000     0.416260000000     0          
H590     H      0.332460000000     0.500000000000     0.250720000000     0          
H591     H      0.400080000000     0.500000000000     0.293460000000     0          
O592     O      0.879100000000     0.000000000000     0.563400000000     0          
C593     C      0.775000000000     0.000000000000     0.647800000000     0          
C594     C      0.815400000000     0.000000000000     0.622500000000     0          
C595     C      0.825600000000     0.000000000000     0.711100000000     0          
C596     C      0.780900000000     0.000000000000     0.695000000000     0          
C597     C      0.866400000000     0.000000000000     0.687300000000     0          
C598     C      0.746000000000     0.000000000000     0.728780000000     0          
H599     H      0.740730000000     0.000000000000     0.629620000000     0          
H600     H      0.832460000000     0.000000000000     0.749280000000     0          
H601     H      0.900080000000     0.000000000000     0.706540000000     0          
O602     O      0.879100000000     0.500000000000     0.063400000000     0          
O603     O      0.379100000000     0.000000000000     0.063400000000     0          
C604     C      0.275000000000     0.000000000000     0.147800000000     0          
C605     C      0.315400000000     0.000000000000     0.122500000000     0          
C606     C      0.325600000000     0.000000000000     0.211100000000     0          
C607     C      0.280900000000     0.000000000000     0.195000000000     0          
C608     C      0.366400000000     0.000000000000     0.187300000000     0          
C609     C      0.246000000000     0.000000000000     0.228780000000     0          
H610     H      0.240730000000     0.000000000000     0.129620000000     0          
H611     H      0.314010000000     0.000000000000     0.083740000000     0          
H612     H      0.332460000000     0.000000000000     0.249280000000     0          
H613     H      0.400080000000     0.000000000000     0.206540000000     0          
O614     O      0.379100000000     0.500000000000     0.563400000000     0          
C615     C      0.396400000000     0.000000000000     0.103600000000     0          
C616     C      0.359300000000     0.000000000000     0.140700000000     0          
C617     C      0.396400000000     0.500000000000     0.603600000000     0          
C618     C      0.359300000000     0.500000000000     0.640700000000     0          
C619     C      0.603600000000     0.000000000000     0.103600000000     0          
C620     C      0.640700000000     0.000000000000     0.140700000000     0          
C621     C      0.603600000000     0.500000000000     0.603600000000     0          
C622     C      0.640700000000     0.500000000000     0.640700000000     0          
C623     C      0.103600000000     0.500000000000     0.103600000000     0          
C624     C      0.140700000000     0.500000000000     0.140700000000     0          
C625     C      0.603600000000     0.000000000000     0.896400000000     0          
C626     C      0.640700000000     0.000000000000     0.859300000000     0          
C627     C      0.603600000000     0.500000000000     0.396400000000     0          
C628     C      0.640700000000     0.500000000000     0.359300000000     0          
C629     C      0.103600000000     0.000000000000     0.396400000000     0          
C630     C      0.140700000000     0.000000000000     0.359300000000     0          
C631     C      0.396400000000     0.000000000000     0.896400000000     0          
C632     C      0.359300000000     0.000000000000     0.859300000000     0          
C633     C      0.396400000000     0.500000000000     0.396400000000     0          
C634     C      0.359300000000     0.500000000000     0.359300000000     0          
C635     C      0.103600000000     0.396400000000     0.000000000000     0          
C636     C      0.140700000000     0.359300000000     0.000000000000     0          
C637     C      0.103600000000     0.896400000000     0.500000000000     0          
C638     C      0.140700000000     0.859300000000     0.500000000000     0          
C639     C      0.103600000000     0.603600000000     0.000000000000     0          
C640     C      0.140700000000     0.640700000000     0.000000000000     0          
C641     C      0.103600000000     0.103600000000     0.500000000000     0          
C642     C      0.140700000000     0.140700000000     0.500000000000     0          
C643     C      0.896400000000     0.603600000000     0.000000000000     0          
C644     C      0.859300000000     0.640700000000     0.000000000000     0          
C645     C      0.896400000000     0.103600000000     0.500000000000     0          
C646     C      0.859300000000     0.140700000000     0.500000000000     0          
C647     C      0.396400000000     0.103600000000     0.000000000000     0          
C648     C      0.359300000000     0.140700000000     0.000000000000     0          
C649     C      0.896400000000     0.396400000000     0.000000000000     0          
C650     C      0.859300000000     0.359300000000     0.000000000000     0          
C651     C      0.896400000000     0.896400000000     0.500000000000     0          
C652     C      0.859300000000     0.859300000000     0.500000000000     0          
C653     C      0.396400000000     0.396400000000     0.500000000000     0          
C654     C      0.359300000000     0.359300000000     0.500000000000     0          
C655     C      0.000000000000     0.103600000000     0.396400000000     0          
C656     C      0.000000000000     0.140700000000     0.359300000000     0          
C657     C      0.500000000000     0.103600000000     0.896400000000     0          
C658     C      0.500000000000     0.140700000000     0.859300000000     0          
C659     C      0.000000000000     0.103600000000     0.603600000000     0          
C660     C      0.000000000000     0.140700000000     0.640700000000     0          
C661     C      0.500000000000     0.103600000000     0.103600000000     0          
C662     C      0.500000000000     0.140700000000     0.140700000000     0          
C663     C      0.000000000000     0.896400000000     0.603600000000     0          
C664     C      0.000000000000     0.859300000000     0.640700000000     0          
C665     C      0.000000000000     0.396400000000     0.103600000000     0          
C666     C      0.000000000000     0.359300000000     0.140700000000     0          
C667     C      0.500000000000     0.896400000000     0.103600000000     0          
C668     C      0.500000000000     0.859300000000     0.140700000000     0          
C669     C      0.000000000000     0.896400000000     0.396400000000     0          
C670     C      0.000000000000     0.859300000000     0.359300000000     0          
C671     C      0.500000000000     0.896400000000     0.896400000000     0          
C672     C      0.500000000000     0.859300000000     0.859300000000     0          
C673     C      0.500000000000     0.396400000000     0.396400000000     0          
C674     C      0.500000000000     0.359300000000     0.359300000000     0          
C675     C      0.000000000000     0.396400000000     0.896400000000     0          
C676     C      0.000000000000     0.359300000000     0.859300000000     0          
C677     C      0.000000000000     0.603600000000     0.896400000000     0          
C678     C      0.000000000000     0.640700000000     0.859300000000     0          
C679     C      0.500000000000     0.603600000000     0.396400000000     0          
C680     C      0.500000000000     0.640700000000     0.359300000000     0          
C681     C      0.000000000000     0.603600000000     0.103600000000     0          
C682     C      0.000000000000     0.640700000000     0.140700000000     0          
C683     C      0.500000000000     0.603600000000     0.603600000000     0          
C684     C      0.500000000000     0.640700000000     0.640700000000     0          
C685     C      0.500000000000     0.396400000000     0.603600000000     0          
C686     C      0.500000000000     0.359300000000     0.640700000000     0          
C687     C      0.396400000000     0.603600000000     0.500000000000     0          
C688     C      0.359300000000     0.640700000000     0.500000000000     0          
C689     C      0.603600000000     0.103600000000     0.000000000000     0          
C690     C      0.640700000000     0.140700000000     0.000000000000     0          
C691     C      0.603600000000     0.603600000000     0.500000000000     0          
C692     C      0.640700000000     0.640700000000     0.500000000000     0          
C693     C      0.603600000000     0.896400000000     0.000000000000     0          
C694     C      0.640700000000     0.859300000000     0.000000000000     0          
C695     C      0.603600000000     0.396400000000     0.500000000000     0          
C696     C      0.640700000000     0.359300000000     0.500000000000     0          
C697     C      0.396400000000     0.896400000000     0.000000000000     0          
C698     C      0.359300000000     0.859300000000     0.000000000000     0          
C699     C      0.103600000000     0.000000000000     0.603600000000     0          
C700     C      0.140700000000     0.000000000000     0.640700000000     0          
C701     C      0.103600000000     0.500000000000     0.896400000000     0          
C702     C      0.140700000000     0.500000000000     0.859300000000     0          
C703     C      0.896400000000     0.000000000000     0.396400000000     0          
C704     C      0.859300000000     0.000000000000     0.359300000000     0          
C705     C      0.896400000000     0.500000000000     0.896400000000     0          
C706     C      0.859300000000     0.500000000000     0.859300000000     0          
C707     C      0.896400000000     0.000000000000     0.603600000000     0          
C708     C      0.859300000000     0.000000000000     0.640700000000     0          
C709     C      0.896400000000     0.500000000000     0.103600000000     0          
C710     C      0.859300000000     0.500000000000     0.140700000000     0          
H711     H      0.791300000000     0.781870000000     0.000000000000     0          
H712     H      0.708700000000     0.718130000000     0.000000000000     0          
H713     H      0.685990000000     0.583740000000     0.500000000000     0          
H714     H      0.791300000000     0.718130000000     0.500000000000     0          
H715     H      0.708700000000     0.781870000000     0.500000000000     0          
H716     H      0.791300000000     0.000000000000     0.781870000000     0          
H717     H      0.708700000000     0.000000000000     0.718130000000     0          
H718     H      0.814010000000     0.000000000000     0.583740000000     0          
H719     H      0.791300000000     0.000000000000     0.218130000000     0          
H720     H      0.708700000000     0.000000000000     0.281870000000     0          
H721     H      0.250720000000     0.667540000000     0.500000000000     0          
H722     H      0.083740000000     0.814010000000     0.500000000000     0          
H723     H      0.281870000000     0.791300000000     0.500000000000     0          
H724     H      0.218130000000     0.791300000000     0.000000000000     0          
H725     H      0.218130000000     0.708700000000     0.500000000000     0          
H726     H      0.281870000000     0.708700000000     0.000000000000     0          
H727     H      0.249280000000     0.832460000000     0.500000000000     0          
H728     H      0.781870000000     0.291300000000     0.500000000000     0          
H729     H      0.718130000000     0.208700000000     0.500000000000     0          
H730     H      0.718130000000     0.291300000000     0.000000000000     0          
H731     H      0.781870000000     0.208700000000     0.000000000000     0          
H732     H      0.793460000000     0.099920000000     0.500000000000     0          
H733     H      0.583740000000     0.314010000000     0.500000000000     0          
H734     H      0.916260000000     0.314010000000     0.000000000000     0          
H735     H      0.218130000000     0.291300000000     0.500000000000     0          
H736     H      0.281870000000     0.208700000000     0.500000000000     0          
H737     H      0.291300000000     0.281870000000     0.000000000000     0          
H738     H      0.208700000000     0.218130000000     0.000000000000     0          
H739     H      0.416260000000     0.314010000000     0.500000000000     0          
H740     H      0.000000000000     0.791300000000     0.781870000000     0          
H741     H      0.500000000000     0.791300000000     0.718130000000     0          
H742     H      0.000000000000     0.708700000000     0.718130000000     0          
H743     H      0.500000000000     0.708700000000     0.781870000000     0          
H744     H      0.000000000000     0.814010000000     0.583740000000     0          
H745     H      0.000000000000     0.791300000000     0.218130000000     0          
H746     H      0.000000000000     0.708700000000     0.281870000000     0          
H747     H      0.500000000000     0.718130000000     0.208700000000     0          
H748     H      0.500000000000     0.781870000000     0.291300000000     0          
H749     H      0.000000000000     0.685990000000     0.083740000000     0          
H750     H      0.000000000000     0.291300000000     0.281870000000     0          
H751     H      0.500000000000     0.291300000000     0.218130000000     0          
H752     H      0.000000000000     0.208700000000     0.218130000000     0          
H753     H      0.500000000000     0.208700000000     0.281870000000     0          
H754     H      0.000000000000     0.314010000000     0.083740000000     0          
H755     H      0.000000000000     0.291300000000     0.718130000000     0          
H756     H      0.000000000000     0.208700000000     0.781870000000     0          
H757     H      0.500000000000     0.218130000000     0.708700000000     0          
H758     H      0.500000000000     0.281870000000     0.791300000000     0          
H759     H      0.000000000000     0.314010000000     0.916260000000     0          
H760     H      0.000000000000     0.332460000000     0.750720000000     0          
H761     H      0.781870000000     0.500000000000     0.291300000000     0          
H762     H      0.718130000000     0.500000000000     0.208700000000     0          
H763     H      0.916260000000     0.500000000000     0.185990000000     0          
H764     H      0.291300000000     0.500000000000     0.218130000000     0          
H765     H      0.208700000000     0.500000000000     0.281870000000     0          
H766     H      0.291300000000     0.000000000000     0.281870000000     0          
H767     H      0.208700000000     0.000000000000     0.218130000000     0          
H768     H      0.281870000000     0.500000000000     0.791300000000     0          
H769     H      0.218130000000     0.500000000000     0.708700000000     0          
H770     H      0.291300000000     0.000000000000     0.718130000000     0          
H771     H      0.208700000000     0.000000000000     0.781870000000     0          
H772     H      0.416260000000     0.500000000000     0.685990000000     0          
H773     H      0.791300000000     0.500000000000     0.718130000000     0          
H774     H      0.708700000000     0.500000000000     0.781870000000     0          
H775     H      0.083740000000     0.185990000000     0.500000000000     0          


