data_RAZVOG

_audit_creation_method RASPA-1.0
_audit_creation_date 2020-11-23
_audit_author_name 'Rocio Bueno-Perez'

_cell_length_a    29.3907
_cell_length_b    29.391
_cell_length_c    29.391
_cell_angle_alpha 90
_cell_angle_beta  90
_cell_angle_gamma 90
_cell_volume      25388.6

_symmetry_cell_setting          triclinic
_symmetry_space_group_name_Hall 'P 1'
_symmetry_space_group_name_H-M  'P 1'
_symmetry_Int_Tables_number     1

_symmetry_equiv_pos_as_xyz 'x,y,z'

loop_
_atom_site_label
_atom_site_type_symbol
_atom_site_fract_x
_atom_site_fract_y
_atom_site_fract_z
_atom_site_charge
Zr1      Zr     0.500000000000     0.000000000000     0.083540000000     0          
Zr2      Zr     0.500000000000     0.500000000000     0.583540000000     0          
Zr3      Zr     0.000000000000     0.000000000000     0.583540000000     0          
Zr4      Zr     0.500000000000     0.000000000000     0.916460000000     0          
Zr5      Zr     0.500000000000     0.500000000000     0.416460000000     0          
Zr6      Zr     0.000000000000     0.500000000000     0.916460000000     0          
Zr7      Zr     0.083540000000     0.500000000000     0.000000000000     0          
Zr8      Zr     0.583540000000     0.500000000000     0.500000000000     0          
Zr9      Zr     0.583540000000     0.000000000000     0.000000000000     0          
Zr10     Zr     0.916460000000     0.500000000000     0.000000000000     0          
Zr11     Zr     0.916460000000     0.000000000000     0.500000000000     0          
Zr12     Zr     0.416460000000     0.500000000000     0.500000000000     0          
Zr13     Zr     0.000000000000     0.083540000000     0.500000000000     0          
Zr14     Zr     0.000000000000     0.583540000000     0.000000000000     0          
Zr15     Zr     0.500000000000     0.583540000000     0.500000000000     0          
Zr16     Zr     0.500000000000     0.083540000000     0.000000000000     0          
Zr17     Zr     0.000000000000     0.916460000000     0.500000000000     0          
Zr18     Zr     0.000000000000     0.416460000000     0.000000000000     0          
Zr19     Zr     0.000000000000     0.000000000000     0.416460000000     0          
Zr20     Zr     0.000000000000     0.500000000000     0.083540000000     0          
Zr21     Zr     0.500000000000     0.916460000000     0.000000000000     0          
Zr22     Zr     0.500000000000     0.416460000000     0.500000000000     0          
Zr23     Zr     0.083540000000     0.000000000000     0.500000000000     0          
Zr24     Zr     0.416460000000     0.000000000000     0.000000000000     0          
O25      O      0.458900000000     0.041100000000     0.041100000000     0          
O26      O      0.458900000000     0.541100000000     0.541100000000     0          
O27      O      0.541100000000     0.958900000000     0.041100000000     0          
O28      O      0.541100000000     0.458900000000     0.541100000000     0          
O29      O      0.041100000000     0.458900000000     0.041100000000     0          
O30      O      0.541100000000     0.041100000000     0.958900000000     0          
O31      O      0.541100000000     0.541100000000     0.458900000000     0          
O32      O      0.041100000000     0.041100000000     0.458900000000     0          
O33      O      0.458900000000     0.958900000000     0.958900000000     0          
O34      O      0.458900000000     0.458900000000     0.458900000000     0          
O35      O      0.041100000000     0.541100000000     0.958900000000     0          
O36      O      0.958900000000     0.541100000000     0.041100000000     0          
O37      O      0.958900000000     0.458900000000     0.958900000000     0          
O38      O      0.958900000000     0.041100000000     0.541100000000     0          
O39      O      0.041100000000     0.958900000000     0.541100000000     0          
O40      O      0.958900000000     0.958900000000     0.458900000000     0          
O41      O      0.041100000000     0.458900000000     0.958900000000     0          
O42      O      0.958900000000     0.541100000000     0.958900000000     0          
O43      O      0.958900000000     0.041100000000     0.458900000000     0          
O44      O      0.458900000000     0.041100000000     0.958900000000     0          
O45      O      0.041100000000     0.541100000000     0.041100000000     0          
O46      O      0.958900000000     0.458900000000     0.041100000000     0          
O47      O      0.458900000000     0.458900000000     0.541100000000     0          
O48      O      0.458900000000     0.541100000000     0.458900000000     0          
O49      O      0.541100000000     0.041100000000     0.041100000000     0          
O50      O      0.541100000000     0.541100000000     0.541100000000     0          
O51      O      0.541100000000     0.958900000000     0.958900000000     0          
O52      O      0.541100000000     0.458900000000     0.458900000000     0          
O53      O      0.041100000000     0.958900000000     0.458900000000     0          
O54      O      0.458900000000     0.958900000000     0.041100000000     0          
O55      O      0.041100000000     0.041100000000     0.541100000000     0          
O56      O      0.958900000000     0.958900000000     0.541100000000     0          
O57      O      0.436600000000     0.000000000000     0.120900000000     0          
C58      C      0.352200000000     0.000000000000     0.225000000000     0          
H59      H      0.366100000000     0.000000000000     0.254600000000     0          
C60      C      0.377500000000     0.000000000000     0.184600000000     0          
H61      H      0.410000000000     0.000000000000     0.188300000000     0          
C62      C      0.305000000000     0.000000000000     0.219100000000     0          
C63      C      0.271220000000     0.000000000000     0.254000000000     0          
O64      O      0.436600000000     0.500000000000     0.620900000000     0          
C65      C      0.352200000000     0.500000000000     0.725000000000     0          
H66      H      0.366100000000     0.500000000000     0.754600000000     0          
C67      C      0.377500000000     0.500000000000     0.684600000000     0          
H68      H      0.410000000000     0.500000000000     0.688300000000     0          
C69      C      0.305000000000     0.500000000000     0.719100000000     0          
N70      N      0.271220000000     0.500000000000     0.754000000000     0          
O71      O      0.936600000000     0.000000000000     0.620900000000     0          
C72      C      0.852200000000     0.000000000000     0.725000000000     0          
H73      H      0.866100000000     0.000000000000     0.754600000000     0          
C74      C      0.877500000000     0.000000000000     0.684600000000     0          
H75      H      0.910000000000     0.000000000000     0.688300000000     0          
C76      C      0.805000000000     0.000000000000     0.719100000000     0          
N77      N      0.771220000000     0.000000000000     0.754000000000     0          
O78      O      0.936600000000     0.500000000000     0.120900000000     0          
C79      C      0.852200000000     0.500000000000     0.225000000000     0          
H80      H      0.866100000000     0.500000000000     0.254600000000     0          
C81      C      0.877500000000     0.500000000000     0.184600000000     0          
H82      H      0.910000000000     0.500000000000     0.188300000000     0          
O83      O      0.563400000000     0.000000000000     0.120900000000     0          
C84      C      0.647800000000     0.000000000000     0.225000000000     0          
H85      H      0.633900000000     0.000000000000     0.254600000000     0          
C86      C      0.622500000000     0.000000000000     0.184600000000     0          
H87      H      0.590000000000     0.000000000000     0.188300000000     0          
O88      O      0.563400000000     0.500000000000     0.620900000000     0          
C89      C      0.647800000000     0.500000000000     0.725000000000     0          
H90      H      0.633900000000     0.500000000000     0.754600000000     0          
C91      C      0.622500000000     0.500000000000     0.684600000000     0          
H92      H      0.590000000000     0.500000000000     0.688300000000     0          
C93      C      0.695000000000     0.500000000000     0.719100000000     0          
N94      N      0.728780000000     0.500000000000     0.754000000000     0          
O95      O      0.063400000000     0.000000000000     0.620900000000     0          
C96      C      0.147800000000     0.000000000000     0.725000000000     0          
H97      H      0.133900000000     0.000000000000     0.754600000000     0          
C98      C      0.122500000000     0.000000000000     0.684600000000     0          
H99      H      0.090000000000     0.000000000000     0.688300000000     0          
O100     O      0.063400000000     0.500000000000     0.120900000000     0          
C101     C      0.147800000000     0.500000000000     0.225000000000     0          
H102     H      0.133900000000     0.500000000000     0.254600000000     0          
C103     C      0.122500000000     0.500000000000     0.184600000000     0          
H104     H      0.090000000000     0.500000000000     0.188300000000     0          
O105     O      0.563400000000     0.000000000000     0.879100000000     0          
C106     C      0.647800000000     0.000000000000     0.775000000000     0          
H107     H      0.633900000000     0.000000000000     0.745400000000     0          
C108     C      0.622500000000     0.000000000000     0.815400000000     0          
H109     H      0.590000000000     0.000000000000     0.811700000000     0          
C110     C      0.695000000000     0.000000000000     0.780900000000     0          
C111     C      0.728780000000     0.000000000000     0.746000000000     0          
O112     O      0.563400000000     0.500000000000     0.379100000000     0          
C113     C      0.647800000000     0.500000000000     0.275000000000     0          
H114     H      0.633900000000     0.500000000000     0.245400000000     0          
C115     C      0.622500000000     0.500000000000     0.315400000000     0          
H116     H      0.590000000000     0.500000000000     0.311700000000     0          
O117     O      0.063400000000     0.000000000000     0.379100000000     0          
C118     C      0.147800000000     0.000000000000     0.275000000000     0          
H119     H      0.133900000000     0.000000000000     0.245400000000     0          
C120     C      0.122500000000     0.000000000000     0.315400000000     0          
H121     H      0.090000000000     0.000000000000     0.311700000000     0          
C122     C      0.195000000000     0.000000000000     0.280900000000     0          
N123     N      0.228780000000     0.000000000000     0.246000000000     0          
O124     O      0.063400000000     0.500000000000     0.879100000000     0          
C125     C      0.147800000000     0.500000000000     0.775000000000     0          
H126     H      0.133900000000     0.500000000000     0.745400000000     0          
C127     C      0.122500000000     0.500000000000     0.815400000000     0          
H128     H      0.090000000000     0.500000000000     0.811700000000     0          
C129     C      0.195000000000     0.500000000000     0.780900000000     0          
C130     C      0.228780000000     0.500000000000     0.746000000000     0          
O131     O      0.436600000000     0.000000000000     0.879100000000     0          
C132     C      0.352200000000     0.000000000000     0.775000000000     0          
H133     H      0.366100000000     0.000000000000     0.745400000000     0          
C134     C      0.377500000000     0.000000000000     0.815400000000     0          
H135     H      0.410000000000     0.000000000000     0.811700000000     0          
O136     O      0.436600000000     0.500000000000     0.379100000000     0          
C137     C      0.352200000000     0.500000000000     0.275000000000     0          
H138     H      0.366100000000     0.500000000000     0.245400000000     0          
C139     C      0.377500000000     0.500000000000     0.315400000000     0          
H140     H      0.410000000000     0.500000000000     0.311700000000     0          
O141     O      0.936600000000     0.000000000000     0.379100000000     0          
C142     C      0.852200000000     0.000000000000     0.275000000000     0          
H143     H      0.866100000000     0.000000000000     0.245400000000     0          
C144     C      0.877500000000     0.000000000000     0.315400000000     0          
H145     H      0.910000000000     0.000000000000     0.311700000000     0          
O146     O      0.936600000000     0.500000000000     0.879100000000     0          
C147     C      0.852200000000     0.500000000000     0.775000000000     0          
H148     H      0.866100000000     0.500000000000     0.745400000000     0          
C149     C      0.877500000000     0.500000000000     0.815400000000     0          
H150     H      0.910000000000     0.500000000000     0.811700000000     0          
C151     C      0.805000000000     0.500000000000     0.780900000000     0          
C152     C      0.771220000000     0.500000000000     0.746000000000     0          
O153     O      0.120900000000     0.436600000000     0.000000000000     0          
C154     C      0.225000000000     0.352200000000     0.000000000000     0          
H155     H      0.254600000000     0.366100000000     0.000000000000     0          
C156     C      0.184600000000     0.377500000000     0.000000000000     0          
H157     H      0.188300000000     0.410000000000     0.000000000000     0          
C158     C      0.219100000000     0.305000000000     0.000000000000     0          
N159     N      0.254000000000     0.271220000000     0.000000000000     0          
O160     O      0.120900000000     0.936600000000     0.500000000000     0          
C161     C      0.225000000000     0.852200000000     0.500000000000     0          
H162     H      0.254600000000     0.866100000000     0.500000000000     0          
C163     C      0.184600000000     0.877500000000     0.500000000000     0          
H164     H      0.188300000000     0.910000000000     0.500000000000     0          
C165     C      0.219100000000     0.805000000000     0.500000000000     0          
N166     N      0.254000000000     0.771220000000     0.500000000000     0          
O167     O      0.620900000000     0.436600000000     0.500000000000     0          
C168     C      0.725000000000     0.352200000000     0.500000000000     0          
H169     H      0.754600000000     0.366100000000     0.500000000000     0          
C170     C      0.684600000000     0.377500000000     0.500000000000     0          
H171     H      0.688300000000     0.410000000000     0.500000000000     0          
O172     O      0.620900000000     0.936600000000     0.000000000000     0          
C173     C      0.725000000000     0.852200000000     0.000000000000     0          
H174     H      0.754600000000     0.866100000000     0.000000000000     0          
C175     C      0.684600000000     0.877500000000     0.000000000000     0          
H176     H      0.688300000000     0.910000000000     0.000000000000     0          
C177     C      0.719100000000     0.805000000000     0.000000000000     0          
C178     C      0.754000000000     0.771220000000     0.000000000000     0          
O179     O      0.120900000000     0.563400000000     0.000000000000     0          
C180     C      0.220690000000     0.656240000000     0.999960000000     0          
H181     H      0.254600000000     0.633900000000     0.000000000000     0          
C182     C      0.184600000000     0.622500000000     0.000000000000     0          
H183     H      0.188300000000     0.590000000000     0.000000000000     0          
O184     O      0.120900000000     0.063400000000     0.500000000000     0          
C185     C      0.225000000000     0.147800000000     0.500000000000     0          
H186     H      0.254600000000     0.133900000000     0.500000000000     0          
C187     C      0.184600000000     0.122500000000     0.500000000000     0          
H188     H      0.188300000000     0.090000000000     0.500000000000     0          
C189     C      0.219100000000     0.195000000000     0.500000000000     0          
N190     N      0.254000000000     0.228780000000     0.500000000000     0          
O191     O      0.620900000000     0.563400000000     0.500000000000     0          
C192     C      0.725000000000     0.647800000000     0.500000000000     0          
H193     H      0.754600000000     0.633900000000     0.500000000000     0          
C194     C      0.684600000000     0.622500000000     0.500000000000     0          
H195     H      0.688300000000     0.590000000000     0.500000000000     0          
C196     C      0.719100000000     0.695000000000     0.500000000000     0          
N197     N      0.754000000000     0.728780000000     0.500000000000     0          
O198     O      0.620900000000     0.063400000000     0.000000000000     0          
C199     C      0.725000000000     0.147800000000     0.000000000000     0          
H200     H      0.754600000000     0.133900000000     0.000000000000     0          
C201     C      0.684600000000     0.122500000000     0.000000000000     0          
H202     H      0.688300000000     0.090000000000     0.000000000000     0          
O203     O      0.879100000000     0.563400000000     0.000000000000     0          
C204     C      0.775000000000     0.647800000000     0.000000000000     0          
H205     H      0.745400000000     0.633900000000     0.000000000000     0          
C206     C      0.815400000000     0.622500000000     0.000000000000     0          
H207     H      0.811700000000     0.590000000000     0.000000000000     0          
C208     C      0.780900000000     0.695000000000     0.000000000000     0          
N209     N      0.746000000000     0.728780000000     0.000000000000     0          
O210     O      0.879100000000     0.063400000000     0.500000000000     0          
C211     C      0.775000000000     0.147800000000     0.500000000000     0          
H212     H      0.745400000000     0.133900000000     0.500000000000     0          
C213     C      0.815400000000     0.122500000000     0.500000000000     0          
H214     H      0.811700000000     0.090000000000     0.500000000000     0          
O215     O      0.379100000000     0.563400000000     0.500000000000     0          
C216     C      0.275000000000     0.647800000000     0.500000000000     0          
H217     H      0.245400000000     0.633900000000     0.500000000000     0          
C218     C      0.315400000000     0.622500000000     0.500000000000     0          
H219     H      0.311700000000     0.590000000000     0.500000000000     0          
C220     C      0.280900000000     0.695000000000     0.500000000000     0          
C221     C      0.246000000000     0.728780000000     0.500000000000     0          
O222     O      0.379100000000     0.063400000000     0.000000000000     0          
C223     C      0.275000000000     0.147800000000     0.000000000000     0          
H224     H      0.245400000000     0.133900000000     0.000000000000     0          
C225     C      0.315400000000     0.122500000000     0.000000000000     0          
H226     H      0.311700000000     0.090000000000     0.000000000000     0          
C227     C      0.280900000000     0.195000000000     0.000000000000     0          
C228     C      0.246000000000     0.228780000000     0.000000000000     0          
O229     O      0.879100000000     0.436600000000     0.000000000000     0          
C230     C      0.775520000000     0.350100000000     0.000010000000     0          
H231     H      0.745400000000     0.366100000000     0.000000000000     0          
C232     C      0.815400000000     0.377500000000     0.000000000000     0          
H233     H      0.811700000000     0.410000000000     0.000000000000     0          
O234     O      0.879100000000     0.936600000000     0.500000000000     0          
C235     C      0.775000000000     0.852200000000     0.500000000000     0          
H236     H      0.745400000000     0.866100000000     0.500000000000     0          
C237     C      0.815400000000     0.877500000000     0.500000000000     0          
H238     H      0.811700000000     0.910000000000     0.500000000000     0          
C239     C      0.780900000000     0.805000000000     0.500000000000     0          
C240     C      0.746000000000     0.771220000000     0.500000000000     0          
O241     O      0.379100000000     0.436600000000     0.500000000000     0          
C242     C      0.275000000000     0.352200000000     0.500000000000     0          
H243     H      0.245400000000     0.366100000000     0.500000000000     0          
C244     C      0.315400000000     0.377500000000     0.500000000000     0          
H245     H      0.311700000000     0.410000000000     0.500000000000     0          
C246     C      0.280900000000     0.305000000000     0.500000000000     0          
C247     C      0.246000000000     0.271220000000     0.500000000000     0          
O248     O      0.379100000000     0.936600000000     0.000000000000     0          
C249     C      0.283090000000     0.844180000000     0.999990000000     0          
H250     H      0.245400000000     0.866100000000     0.000000000000     0          
C251     C      0.315400000000     0.877500000000     0.000000000000     0          
H252     H      0.311700000000     0.910000000000     0.000000000000     0          
O253     O      0.000000000000     0.120900000000     0.436600000000     0          
C254     C      0.000000000000     0.225000000000     0.352200000000     0          
H255     H      0.000000000000     0.254600000000     0.366100000000     0          
C256     C      0.000000000000     0.184600000000     0.377500000000     0          
H257     H      0.000000000000     0.188300000000     0.410000000000     0          
C258     C      0.000000000000     0.219100000000     0.305000000000     0          
C259     C      0.000000000000     0.254000000000     0.271220000000     0          
O260     O      0.000000000000     0.620900000000     0.936600000000     0          
C261     C      0.000000000000     0.725000000000     0.852200000000     0          
H262     H      0.000000000000     0.754600000000     0.866100000000     0          
C263     C      0.000000000000     0.684600000000     0.877500000000     0          
H264     H      0.000000000000     0.688300000000     0.910000000000     0          
O265     O      0.500000000000     0.120900000000     0.936600000000     0          
C266     C      0.500000000000     0.225000000000     0.852200000000     0          
H267     H      0.500000000000     0.254600000000     0.866100000000     0          
C268     C      0.500000000000     0.184600000000     0.877500000000     0          
H269     H      0.500000000000     0.188300000000     0.910000000000     0          
C270     C      0.500000000000     0.219100000000     0.805000000000     0          
C271     C      0.500000000000     0.254000000000     0.771220000000     0          
O272     O      0.500000000000     0.620900000000     0.436600000000     0          
C273     C      0.500000000000     0.725000000000     0.352200000000     0          
H274     H      0.500000000000     0.754600000000     0.366100000000     0          
C275     C      0.500000000000     0.684600000000     0.377500000000     0          
H276     H      0.500000000000     0.688300000000     0.410000000000     0          
C277     C      0.500000000000     0.719100000000     0.305000000000     0          
N278     N      0.500000000000     0.754000000000     0.271220000000     0          
O279     O      0.000000000000     0.120900000000     0.563400000000     0          
C280     C      0.000000000000     0.225000000000     0.647800000000     0          
H281     H      0.000000000000     0.254600000000     0.633900000000     0          
C282     C      0.000000000000     0.184600000000     0.622500000000     0          
H283     H      0.000000000000     0.188300000000     0.590000000000     0          
C284     C      0.000000000000     0.219100000000     0.695000000000     0          
C285     C      0.000000000000     0.254000000000     0.728780000000     0          
O286     O      0.000000000000     0.620900000000     0.063400000000     0          
C287     C      0.000000000000     0.725000000000     0.147800000000     0          
H288     H      0.000000000000     0.754600000000     0.133900000000     0          
C289     C      0.000000000000     0.684600000000     0.122500000000     0          
H290     H      0.000000000000     0.688300000000     0.090000000000     0          
O291     O      0.500000000000     0.120900000000     0.063400000000     0          
C292     C      0.500000000000     0.225000000000     0.147800000000     0          
H293     H      0.500000000000     0.254600000000     0.133900000000     0          
C294     C      0.500000000000     0.184600000000     0.122500000000     0          
H295     H      0.500000000000     0.188300000000     0.090000000000     0          
C296     C      0.500000000000     0.219100000000     0.195000000000     0          
C297     C      0.500000000000     0.254000000000     0.228780000000     0          
O298     O      0.500000000000     0.620900000000     0.563400000000     0          
C299     C      0.500000000000     0.725000000000     0.647800000000     0          
H300     H      0.500000000000     0.754600000000     0.633900000000     0          
C301     C      0.500000000000     0.684600000000     0.622500000000     0          
H302     H      0.500000000000     0.688300000000     0.590000000000     0          
C303     C      0.500000000000     0.719100000000     0.695000000000     0          
N304     N      0.500000000000     0.754000000000     0.728780000000     0          
O305     O      0.000000000000     0.879100000000     0.563400000000     0          
C306     C      0.000000000000     0.775000000000     0.647800000000     0          
H307     H      0.000000000000     0.745400000000     0.633900000000     0          
C308     C      0.000000000000     0.815400000000     0.622500000000     0          
H309     H      0.000000000000     0.811700000000     0.590000000000     0          
O310     O      0.000000000000     0.379100000000     0.063400000000     0          
C311     C      0.000000000000     0.275000000000     0.147800000000     0          
H312     H      0.000000000000     0.245400000000     0.133900000000     0          
C313     C      0.000000000000     0.315400000000     0.122500000000     0          
H314     H      0.000000000000     0.311700000000     0.090000000000     0          
C315     C      0.000000000000     0.280900000000     0.195000000000     0          
N316     N      0.000000000000     0.246000000000     0.228780000000     0          
O317     O      0.500000000000     0.879100000000     0.063400000000     0          
C318     C      0.500000000000     0.775000000000     0.147800000000     0          
H319     H      0.500000000000     0.745400000000     0.133900000000     0          
C320     C      0.500000000000     0.815400000000     0.122500000000     0          
H321     H      0.500000000000     0.811700000000     0.090000000000     0          
C322     C      0.500000000000     0.780900000000     0.195000000000     0          
C323     C      0.500000000000     0.746000000000     0.228780000000     0          
O324     O      0.500000000000     0.379100000000     0.563400000000     0          
C325     C      0.500000000000     0.275000000000     0.647800000000     0          
H326     H      0.500000000000     0.245400000000     0.633900000000     0          
C327     C      0.500000000000     0.315400000000     0.622500000000     0          
H328     H      0.500000000000     0.311700000000     0.590000000000     0          
C329     C      0.500000000000     0.280900000000     0.695000000000     0          
N330     N      0.500000000000     0.246000000000     0.728780000000     0          
O331     O      0.000000000000     0.879100000000     0.436600000000     0          
C332     C      0.000000000000     0.775000000000     0.352200000000     0          
H333     H      0.000000000000     0.745400000000     0.366100000000     0          
C334     C      0.000000000000     0.815400000000     0.377500000000     0          
H335     H      0.000000000000     0.811700000000     0.410000000000     0          
O336     O      0.000000000000     0.379100000000     0.936600000000     0          
C337     C      0.000000000000     0.275000000000     0.852200000000     0          
H338     H      0.000000000000     0.245400000000     0.866100000000     0          
C339     C      0.000000000000     0.315400000000     0.877500000000     0          
H340     H      0.000000000000     0.311700000000     0.910000000000     0          
C341     C      0.000000000000     0.280900000000     0.805000000000     0          
N342     N      0.000000000000     0.246000000000     0.771220000000     0          
O343     O      0.500000000000     0.879100000000     0.936600000000     0          
C344     C      0.500000000000     0.775000000000     0.852200000000     0          
H345     H      0.500000000000     0.745400000000     0.866100000000     0          
C346     C      0.500000000000     0.815400000000     0.877500000000     0          
H347     H      0.500000000000     0.811700000000     0.910000000000     0          
C348     C      0.500000000000     0.780900000000     0.805000000000     0          
C349     C      0.500000000000     0.746000000000     0.771220000000     0          
O350     O      0.500000000000     0.379100000000     0.436600000000     0          
C351     C      0.500000000000     0.275000000000     0.352200000000     0          
H352     H      0.500000000000     0.245400000000     0.366100000000     0          
C353     C      0.500000000000     0.315400000000     0.377500000000     0          
H354     H      0.500000000000     0.311700000000     0.410000000000     0          
C355     C      0.500000000000     0.280900000000     0.305000000000     0          
N356     N      0.500000000000     0.246000000000     0.271220000000     0          
O357     O      0.000000000000     0.436600000000     0.879100000000     0          
C358     C      0.000000000000     0.352200000000     0.775000000000     0          
H359     H      0.000000000000     0.366100000000     0.745400000000     0          
C360     C      0.000000000000     0.377500000000     0.815400000000     0          
H361     H      0.000000000000     0.410000000000     0.811700000000     0          
O362     O      0.000000000000     0.936600000000     0.379100000000     0          
C363     C      0.000000000000     0.852200000000     0.275000000000     0          
H364     H      0.000000000000     0.866100000000     0.245400000000     0          
C365     C      0.000000000000     0.877500000000     0.315400000000     0          
H366     H      0.000000000000     0.910000000000     0.311700000000     0          
C367     C      0.000000000000     0.805000000000     0.280900000000     0          
C368     C      0.000000000000     0.771220000000     0.246000000000     0          
O369     O      0.500000000000     0.436600000000     0.379100000000     0          
C370     C      0.500000000000     0.352200000000     0.275000000000     0          
H371     H      0.500000000000     0.366100000000     0.245400000000     0          
C372     C      0.500000000000     0.377500000000     0.315400000000     0          
H373     H      0.500000000000     0.410000000000     0.311700000000     0          
O374     O      0.500000000000     0.936600000000     0.879100000000     0          
C375     C      0.500000000000     0.852200000000     0.775000000000     0          
H376     H      0.500000000000     0.866100000000     0.745400000000     0          
C377     C      0.500000000000     0.877500000000     0.815400000000     0          
H378     H      0.500000000000     0.910000000000     0.811700000000     0          
O379     O      0.000000000000     0.563400000000     0.879100000000     0          
C380     C      0.000000000000     0.647800000000     0.775000000000     0          
H381     H      0.000000000000     0.633900000000     0.745400000000     0          
C382     C      0.000000000000     0.622500000000     0.815400000000     0          
H383     H      0.000000000000     0.590000000000     0.811700000000     0          
C384     C      0.000000000000     0.695000000000     0.780900000000     0          
N385     N      0.000000000000     0.728780000000     0.746000000000     0          
O386     O      0.000000000000     0.063400000000     0.379100000000     0          
C387     C      0.000000000000     0.147800000000     0.275000000000     0          
H388     H      0.000000000000     0.133900000000     0.245400000000     0          
C389     C      0.000000000000     0.122500000000     0.315400000000     0          
H390     H      0.000000000000     0.090000000000     0.311700000000     0          
O391     O      0.500000000000     0.563400000000     0.379100000000     0          
C392     C      0.500000000000     0.647800000000     0.275000000000     0          
H393     H      0.500000000000     0.633900000000     0.245400000000     0          
C394     C      0.500000000000     0.622500000000     0.315400000000     0          
H395     H      0.500000000000     0.590000000000     0.311700000000     0          
O396     O      0.500000000000     0.063400000000     0.879100000000     0          
C397     C      0.500000000000     0.147800000000     0.775000000000     0          
H398     H      0.500000000000     0.133900000000     0.745400000000     0          
C399     C      0.500000000000     0.122500000000     0.815400000000     0          
H400     H      0.500000000000     0.090000000000     0.811700000000     0          
O401     O      0.000000000000     0.563400000000     0.120900000000     0          
C402     C      0.000000000000     0.647800000000     0.225000000000     0          
H403     H      0.000000000000     0.633900000000     0.254600000000     0          
C404     C      0.000000000000     0.622500000000     0.184600000000     0          
H405     H      0.000000000000     0.590000000000     0.188300000000     0          
C406     C      0.000000000000     0.695000000000     0.219100000000     0          
N407     N      0.000000000000     0.728780000000     0.254000000000     0          
O408     O      0.000000000000     0.063400000000     0.620900000000     0          
C409     C      0.000000000000     0.147800000000     0.725000000000     0          
H410     H      0.000000000000     0.133900000000     0.754600000000     0          
C411     C      0.000000000000     0.122500000000     0.684600000000     0          
H412     H      0.000000000000     0.090000000000     0.688300000000     0          
O413     O      0.500000000000     0.563400000000     0.620900000000     0          
C414     C      0.500000000000     0.647800000000     0.725000000000     0          
H415     H      0.500000000000     0.633900000000     0.754600000000     0          
C416     C      0.500000000000     0.622500000000     0.684600000000     0          
H417     H      0.500000000000     0.590000000000     0.688300000000     0          
O418     O      0.500000000000     0.063400000000     0.120900000000     0          
C419     C      0.500000000000     0.147800000000     0.225000000000     0          
H420     H      0.500000000000     0.133900000000     0.254600000000     0          
C421     C      0.500000000000     0.122500000000     0.184600000000     0          
H422     H      0.500000000000     0.090000000000     0.188300000000     0          
O423     O      0.000000000000     0.436600000000     0.120900000000     0          
C424     C      0.000000000000     0.352200000000     0.225000000000     0          
H425     H      0.000000000000     0.366100000000     0.254600000000     0          
C426     C      0.000000000000     0.377500000000     0.184600000000     0          
H427     H      0.000000000000     0.410000000000     0.188300000000     0          
O428     O      0.000000000000     0.936600000000     0.620900000000     0          
C429     C      0.000000000000     0.852200000000     0.725000000000     0          
H430     H      0.000000000000     0.866100000000     0.754600000000     0          
C431     C      0.000000000000     0.877500000000     0.684600000000     0          
H432     H      0.000000000000     0.910000000000     0.688300000000     0          
C433     C      0.000000000000     0.805000000000     0.719100000000     0          
C434     C      0.000000000000     0.771220000000     0.754000000000     0          
O435     O      0.500000000000     0.436600000000     0.620900000000     0          
C436     C      0.500000000000     0.352200000000     0.725000000000     0          
H437     H      0.500000000000     0.366100000000     0.754600000000     0          
C438     C      0.500000000000     0.377500000000     0.684600000000     0          
H439     H      0.500000000000     0.410000000000     0.688300000000     0          
O440     O      0.500000000000     0.936600000000     0.120900000000     0          
C441     C      0.500000000000     0.852200000000     0.225000000000     0          
H442     H      0.500000000000     0.866100000000     0.254600000000     0          
C443     C      0.500000000000     0.877500000000     0.184600000000     0          
H444     H      0.500000000000     0.910000000000     0.188300000000     0          
O445     O      0.436600000000     0.120900000000     0.000000000000     0          
C446     C      0.352200000000     0.225000000000     0.000000000000     0          
H447     H      0.366100000000     0.254600000000     0.000000000000     0          
C448     C      0.377500000000     0.184600000000     0.000000000000     0          
H449     H      0.410000000000     0.188300000000     0.000000000000     0          
O450     O      0.436600000000     0.620900000000     0.500000000000     0          
C451     C      0.352200000000     0.725000000000     0.500000000000     0          
H452     H      0.366100000000     0.754600000000     0.500000000000     0          
C453     C      0.377500000000     0.684600000000     0.500000000000     0          
H454     H      0.410000000000     0.688300000000     0.500000000000     0          
O455     O      0.936600000000     0.120900000000     0.500000000000     0          
C456     C      0.852200000000     0.225000000000     0.500000000000     0          
H457     H      0.866100000000     0.254600000000     0.500000000000     0          
C458     C      0.877500000000     0.184600000000     0.500000000000     0          
H459     H      0.910000000000     0.188300000000     0.500000000000     0          
C460     C      0.805000000000     0.219100000000     0.500000000000     0          
N461     N      0.771220000000     0.254000000000     0.500000000000     0          
O462     O      0.936600000000     0.620900000000     0.000000000000     0          
C463     C      0.852200000000     0.725000000000     0.000000000000     0          
H464     H      0.866100000000     0.754600000000     0.000000000000     0          
C465     C      0.877500000000     0.684600000000     0.000000000000     0          
H466     H      0.910000000000     0.688300000000     0.000000000000     0          
O467     O      0.563400000000     0.120900000000     0.000000000000     0          
C468     C      0.647800000000     0.225000000000     0.000000000000     0          
H469     H      0.633900000000     0.254600000000     0.000000000000     0          
C470     C      0.622500000000     0.184600000000     0.000000000000     0          
H471     H      0.590000000000     0.188300000000     0.000000000000     0          
C472     C      0.695000000000     0.219100000000     0.000000000000     0          
N473     N      0.728780000000     0.254000000000     0.000000000000     0          
O474     O      0.563400000000     0.620900000000     0.500000000000     0          
C475     C      0.647800000000     0.725000000000     0.500000000000     0          
H476     H      0.633900000000     0.754600000000     0.500000000000     0          
C477     C      0.622500000000     0.684600000000     0.500000000000     0          
H478     H      0.590000000000     0.688300000000     0.500000000000     0          
O479     O      0.063400000000     0.120900000000     0.500000000000     0          
C480     C      0.147800000000     0.225000000000     0.500000000000     0          
H481     H      0.133900000000     0.254600000000     0.500000000000     0          
C482     C      0.122500000000     0.184600000000     0.500000000000     0          
H483     H      0.090000000000     0.188300000000     0.500000000000     0          
O484     O      0.063400000000     0.620900000000     0.000000000000     0          
C485     C      0.154280000000     0.720850000000     0.000000000000     0          
H486     H      0.133900000000     0.754600000000     0.000000000000     0          
C487     C      0.122500000000     0.684600000000     0.000000000000     0          
H488     H      0.090000000000     0.688300000000     0.000000000000     0          
C489     C      0.203440000000     0.711460000000     0.000010000000     0          
C490     C      0.230770000000     0.750640000000     0.999980000000     0          
O491     O      0.563400000000     0.879100000000     0.000000000000     0          
C492     C      0.647800000000     0.775000000000     0.000000000000     0          
H493     H      0.633900000000     0.745400000000     0.000000000000     0          
C494     C      0.622500000000     0.815400000000     0.000000000000     0          
H495     H      0.590000000000     0.811700000000     0.000000000000     0          
O496     O      0.563400000000     0.379100000000     0.500000000000     0          
C497     C      0.647800000000     0.275000000000     0.500000000000     0          
H498     H      0.633900000000     0.245400000000     0.500000000000     0          
C499     C      0.622500000000     0.315400000000     0.500000000000     0          
H500     H      0.590000000000     0.311700000000     0.500000000000     0          
C501     C      0.695000000000     0.280900000000     0.500000000000     0          
C502     C      0.728780000000     0.246000000000     0.500000000000     0          
O503     O      0.063400000000     0.879100000000     0.500000000000     0          
C504     C      0.147800000000     0.775000000000     0.500000000000     0          
H505     H      0.133900000000     0.745400000000     0.500000000000     0          
C506     C      0.122500000000     0.815400000000     0.500000000000     0          
H507     H      0.090000000000     0.811700000000     0.500000000000     0          
O508     O      0.063400000000     0.379100000000     0.000000000000     0          
C509     C      0.147800000000     0.275000000000     0.000000000000     0          
H510     H      0.133900000000     0.245400000000     0.000000000000     0          
C511     C      0.122500000000     0.315400000000     0.000000000000     0          
H512     H      0.090000000000     0.311700000000     0.000000000000     0          
O513     O      0.436600000000     0.879100000000     0.000000000000     0          
C514     C      0.348010000000     0.779160000000     0.000010000000     0          
H515     H      0.366100000000     0.745400000000     0.000000000000     0          
C516     C      0.377500000000     0.815400000000     0.000000000000     0          
H517     H      0.410000000000     0.811700000000     0.000000000000     0          
C518     C      0.300010000000     0.790370000000     0.999990000000     0          
N519     N      0.272750000000     0.752690000000     0.000040000000     0          
O520     O      0.436600000000     0.379100000000     0.500000000000     0          
C521     C      0.352200000000     0.275000000000     0.500000000000     0          
H522     H      0.366100000000     0.245400000000     0.500000000000     0          
C523     C      0.377500000000     0.315400000000     0.500000000000     0          
H524     H      0.410000000000     0.311700000000     0.500000000000     0          
O525     O      0.936600000000     0.879100000000     0.500000000000     0          
C526     C      0.852200000000     0.775000000000     0.500000000000     0          
H527     H      0.866100000000     0.745400000000     0.500000000000     0          
C528     C      0.877500000000     0.815400000000     0.500000000000     0          
H529     H      0.910000000000     0.811700000000     0.500000000000     0          
O530     O      0.936600000000     0.379100000000     0.000000000000     0          
C531     C      0.852200000000     0.275000000000     0.000000000000     0          
H532     H      0.866100000000     0.245400000000     0.000000000000     0          
C533     C      0.877500000000     0.315400000000     0.000000000000     0          
H534     H      0.910000000000     0.311700000000     0.000000000000     0          
C535     C      0.805000000000     0.280900000000     0.000000000000     0          
C536     C      0.771220000000     0.246000000000     0.000000000000     0          
O537     O      0.120900000000     0.000000000000     0.563400000000     0          
C538     C      0.225000000000     0.000000000000     0.647800000000     0          
H539     H      0.254600000000     0.000000000000     0.633900000000     0          
C540     C      0.184600000000     0.000000000000     0.622500000000     0          
H541     H      0.188300000000     0.000000000000     0.590000000000     0          
C542     C      0.219100000000     0.000000000000     0.695000000000     0          
C543     C      0.254000000000     0.000000000000     0.728780000000     0          
O544     O      0.120900000000     0.500000000000     0.063400000000     0          
C545     C      0.225000000000     0.500000000000     0.147800000000     0          
H546     H      0.254600000000     0.500000000000     0.133900000000     0          
C547     C      0.184600000000     0.500000000000     0.122500000000     0          
H548     H      0.188300000000     0.500000000000     0.090000000000     0          
C549     C      0.219100000000     0.500000000000     0.195000000000     0          
N550     N      0.254000000000     0.500000000000     0.228780000000     0          
O551     O      0.620900000000     0.000000000000     0.063400000000     0          
C552     C      0.725000000000     0.000000000000     0.147800000000     0          
H553     H      0.754600000000     0.000000000000     0.133900000000     0          
C554     C      0.684600000000     0.000000000000     0.122500000000     0          
H555     H      0.688300000000     0.000000000000     0.090000000000     0          
C556     C      0.719100000000     0.000000000000     0.195000000000     0          
N557     N      0.754000000000     0.000000000000     0.228780000000     0          
O558     O      0.620900000000     0.500000000000     0.563400000000     0          
C559     C      0.725000000000     0.500000000000     0.647800000000     0          
H560     H      0.754600000000     0.500000000000     0.633900000000     0          
C561     C      0.684600000000     0.500000000000     0.622500000000     0          
H562     H      0.688300000000     0.500000000000     0.590000000000     0          
O563     O      0.120900000000     0.000000000000     0.436600000000     0          
C564     C      0.225000000000     0.000000000000     0.352200000000     0          
H565     H      0.254600000000     0.000000000000     0.366100000000     0          
C566     C      0.184600000000     0.000000000000     0.377500000000     0          
H567     H      0.188300000000     0.000000000000     0.410000000000     0          
O568     O      0.120900000000     0.500000000000     0.936600000000     0          
C569     C      0.225000000000     0.500000000000     0.852200000000     0          
H570     H      0.254600000000     0.500000000000     0.866100000000     0          
C571     C      0.184600000000     0.500000000000     0.877500000000     0          
H572     H      0.188300000000     0.500000000000     0.910000000000     0          
O573     O      0.620900000000     0.000000000000     0.936600000000     0          
C574     C      0.725000000000     0.000000000000     0.852200000000     0          
H575     H      0.754600000000     0.000000000000     0.866100000000     0          
C576     C      0.684600000000     0.000000000000     0.877500000000     0          
H577     H      0.688300000000     0.000000000000     0.910000000000     0          
O578     O      0.620900000000     0.500000000000     0.436600000000     0          
C579     C      0.725000000000     0.500000000000     0.352200000000     0          
H580     H      0.754600000000     0.500000000000     0.366100000000     0          
C581     C      0.684600000000     0.500000000000     0.377500000000     0          
H582     H      0.688300000000     0.500000000000     0.410000000000     0          
C583     C      0.719100000000     0.500000000000     0.305000000000     0          
C584     C      0.754000000000     0.500000000000     0.271220000000     0          
O585     O      0.879100000000     0.000000000000     0.436600000000     0          
C586     C      0.775000000000     0.000000000000     0.352200000000     0          
H587     H      0.745400000000     0.000000000000     0.366100000000     0          
C588     C      0.815400000000     0.000000000000     0.377500000000     0          
H589     H      0.811700000000     0.000000000000     0.410000000000     0          
C590     C      0.780900000000     0.000000000000     0.305000000000     0          
C591     C      0.746000000000     0.000000000000     0.271220000000     0          
O592     O      0.879100000000     0.500000000000     0.936600000000     0          
C593     C      0.775000000000     0.500000000000     0.852200000000     0          
H594     H      0.745400000000     0.500000000000     0.866100000000     0          
C595     C      0.815400000000     0.500000000000     0.877500000000     0          
H596     H      0.811700000000     0.500000000000     0.910000000000     0          
O597     O      0.379100000000     0.000000000000     0.936600000000     0          
C598     C      0.275000000000     0.000000000000     0.852200000000     0          
H599     H      0.245400000000     0.000000000000     0.866100000000     0          
C600     C      0.315400000000     0.000000000000     0.877500000000     0          
H601     H      0.311700000000     0.000000000000     0.910000000000     0          
C602     C      0.280900000000     0.000000000000     0.805000000000     0          
N603     N      0.246000000000     0.000000000000     0.771220000000     0          
O604     O      0.379100000000     0.500000000000     0.436600000000     0          
C605     C      0.275000000000     0.500000000000     0.352200000000     0          
H606     H      0.245400000000     0.500000000000     0.366100000000     0          
C607     C      0.315400000000     0.500000000000     0.377500000000     0          
H608     H      0.311700000000     0.500000000000     0.410000000000     0          
C609     C      0.280900000000     0.500000000000     0.305000000000     0          
C610     C      0.246000000000     0.500000000000     0.271220000000     0          
O611     O      0.879100000000     0.000000000000     0.563400000000     0          
C612     C      0.775000000000     0.000000000000     0.647800000000     0          
H613     H      0.745400000000     0.000000000000     0.633900000000     0          
C614     C      0.815400000000     0.000000000000     0.622500000000     0          
H615     H      0.811700000000     0.000000000000     0.590000000000     0          
O616     O      0.879100000000     0.500000000000     0.063400000000     0          
C617     C      0.775000000000     0.500000000000     0.147800000000     0          
H618     H      0.745400000000     0.500000000000     0.133900000000     0          
C619     C      0.815400000000     0.500000000000     0.122500000000     0          
H620     H      0.811700000000     0.500000000000     0.090000000000     0          
C621     C      0.780900000000     0.500000000000     0.195000000000     0          
N622     N      0.746000000000     0.500000000000     0.228780000000     0          
O623     O      0.379100000000     0.000000000000     0.063400000000     0          
C624     C      0.275000000000     0.000000000000     0.147800000000     0          
H625     H      0.245400000000     0.000000000000     0.133900000000     0          
C626     C      0.315400000000     0.000000000000     0.122500000000     0          
H627     H      0.311700000000     0.000000000000     0.090000000000     0          
O628     O      0.379100000000     0.500000000000     0.563400000000     0          
C629     C      0.275000000000     0.500000000000     0.647800000000     0          
H630     H      0.245400000000     0.500000000000     0.633900000000     0          
C631     C      0.315400000000     0.500000000000     0.622500000000     0          
H632     H      0.311700000000     0.500000000000     0.590000000000     0          
C633     C      0.396400000000     0.000000000000     0.103600000000     0          
C634     C      0.359300000000     0.000000000000     0.140700000000     0          
C635     C      0.396400000000     0.500000000000     0.603600000000     0          
C636     C      0.359300000000     0.500000000000     0.640700000000     0          
C637     C      0.603600000000     0.000000000000     0.103600000000     0          
C638     C      0.640700000000     0.000000000000     0.140700000000     0          
C639     C      0.603600000000     0.500000000000     0.603600000000     0          
C640     C      0.640700000000     0.500000000000     0.640700000000     0          
C641     C      0.103600000000     0.500000000000     0.103600000000     0          
C642     C      0.140700000000     0.500000000000     0.140700000000     0          
C643     C      0.603600000000     0.000000000000     0.896400000000     0          
C644     C      0.640700000000     0.000000000000     0.859300000000     0          
C645     C      0.603600000000     0.500000000000     0.396400000000     0          
C646     C      0.640700000000     0.500000000000     0.359300000000     0          
C647     C      0.103600000000     0.000000000000     0.396400000000     0          
C648     C      0.140700000000     0.000000000000     0.359300000000     0          
C649     C      0.396400000000     0.000000000000     0.896400000000     0          
C650     C      0.359300000000     0.000000000000     0.859300000000     0          
C651     C      0.396400000000     0.500000000000     0.396400000000     0          
C652     C      0.359300000000     0.500000000000     0.359300000000     0          
C653     C      0.103600000000     0.396400000000     0.000000000000     0          
C654     C      0.140700000000     0.359300000000     0.000000000000     0          
C655     C      0.103600000000     0.896400000000     0.500000000000     0          
C656     C      0.140700000000     0.859300000000     0.500000000000     0          
C657     C      0.103600000000     0.603600000000     0.000000000000     0          
C658     C      0.140700000000     0.640700000000     0.000000000000     0          
C659     C      0.103600000000     0.103600000000     0.500000000000     0          
C660     C      0.140700000000     0.140700000000     0.500000000000     0          
C661     C      0.896400000000     0.603600000000     0.000000000000     0          
C662     C      0.859300000000     0.640700000000     0.000000000000     0          
C663     C      0.896400000000     0.103600000000     0.500000000000     0          
C664     C      0.859300000000     0.140700000000     0.500000000000     0          
C665     C      0.396400000000     0.103600000000     0.000000000000     0          
C666     C      0.359300000000     0.140700000000     0.000000000000     0          
C667     C      0.896400000000     0.396400000000     0.000000000000     0          
C668     C      0.859300000000     0.359300000000     0.000000000000     0          
C669     C      0.896400000000     0.896400000000     0.500000000000     0          
C670     C      0.859300000000     0.859300000000     0.500000000000     0          
C671     C      0.396400000000     0.396400000000     0.500000000000     0          
C672     C      0.359300000000     0.359300000000     0.500000000000     0          
C673     C      0.000000000000     0.103600000000     0.396400000000     0          
C674     C      0.000000000000     0.140700000000     0.359300000000     0          
C675     C      0.500000000000     0.103600000000     0.896400000000     0          
C676     C      0.500000000000     0.140700000000     0.859300000000     0          
C677     C      0.000000000000     0.103600000000     0.603600000000     0          
C678     C      0.000000000000     0.140700000000     0.640700000000     0          
C679     C      0.500000000000     0.103600000000     0.103600000000     0          
C680     C      0.500000000000     0.140700000000     0.140700000000     0          
C681     C      0.000000000000     0.896400000000     0.603600000000     0          
C682     C      0.000000000000     0.859300000000     0.640700000000     0          
C683     C      0.000000000000     0.396400000000     0.103600000000     0          
C684     C      0.000000000000     0.359300000000     0.140700000000     0          
C685     C      0.500000000000     0.896400000000     0.103600000000     0          
C686     C      0.500000000000     0.859300000000     0.140700000000     0          
C687     C      0.000000000000     0.896400000000     0.396400000000     0          
C688     C      0.000000000000     0.859300000000     0.359300000000     0          
C689     C      0.500000000000     0.896400000000     0.896400000000     0          
C690     C      0.500000000000     0.859300000000     0.859300000000     0          
C691     C      0.500000000000     0.396400000000     0.396400000000     0          
C692     C      0.500000000000     0.359300000000     0.359300000000     0          
C693     C      0.000000000000     0.396400000000     0.896400000000     0          
C694     C      0.000000000000     0.359300000000     0.859300000000     0          
C695     C      0.000000000000     0.603600000000     0.896400000000     0          
C696     C      0.000000000000     0.640700000000     0.859300000000     0          
C697     C      0.500000000000     0.603600000000     0.396400000000     0          
C698     C      0.500000000000     0.640700000000     0.359300000000     0          
C699     C      0.000000000000     0.603600000000     0.103600000000     0          
C700     C      0.000000000000     0.640700000000     0.140700000000     0          
C701     C      0.500000000000     0.603600000000     0.603600000000     0          
C702     C      0.500000000000     0.640700000000     0.640700000000     0          
C703     C      0.500000000000     0.396400000000     0.603600000000     0          
C704     C      0.500000000000     0.359300000000     0.640700000000     0          
C705     C      0.396400000000     0.603600000000     0.500000000000     0          
C706     C      0.359300000000     0.640700000000     0.500000000000     0          
C707     C      0.603600000000     0.103600000000     0.000000000000     0          
C708     C      0.640700000000     0.140700000000     0.000000000000     0          
C709     C      0.603600000000     0.603600000000     0.500000000000     0          
C710     C      0.640700000000     0.640700000000     0.500000000000     0          
C711     C      0.603600000000     0.896400000000     0.000000000000     0          
C712     C      0.640700000000     0.859300000000     0.000000000000     0          
C713     C      0.603600000000     0.396400000000     0.500000000000     0          
C714     C      0.640700000000     0.359300000000     0.500000000000     0          
C715     C      0.396400000000     0.896400000000     0.000000000000     0          
C716     C      0.359300000000     0.859300000000     0.000000000000     0          
C717     C      0.103600000000     0.000000000000     0.603600000000     0          
C718     C      0.140700000000     0.000000000000     0.640700000000     0          
C719     C      0.103600000000     0.500000000000     0.896400000000     0          
C720     C      0.140700000000     0.500000000000     0.859300000000     0          
C721     C      0.896400000000     0.000000000000     0.396400000000     0          
C722     C      0.859300000000     0.000000000000     0.359300000000     0          
C723     C      0.896400000000     0.500000000000     0.896400000000     0          
C724     C      0.859300000000     0.500000000000     0.859300000000     0          
C725     C      0.896400000000     0.000000000000     0.603600000000     0          
C726     C      0.859300000000     0.000000000000     0.640700000000     0          
C727     C      0.896400000000     0.500000000000     0.103600000000     0          
C728     C      0.859300000000     0.500000000000     0.140700000000     0          
H729     H      0.281200000000     0.000000000000     0.281200000000     0          
H730     H      0.781200000000     0.500000000000     0.281200000000     0          
H731     H      0.718800000000     0.000000000000     0.281200000000     0          
H732     H      0.218800000000     0.500000000000     0.281200000000     0          
H733     H      0.718800000000     0.000000000000     0.718800000000     0          
H734     H      0.218800000000     0.500000000000     0.718800000000     0          
H735     H      0.281200000000     0.000000000000     0.718800000000     0          
H736     H      0.781200000000     0.500000000000     0.718800000000     0          
H737     H      0.781200000000     0.781200000000     0.000000000000     0          
H738     H      0.781200000000     0.218800000000     0.000000000000     0          
H739     H      0.718800000000     0.218800000000     0.500000000000     0          
H740     H      0.218800000000     0.718800000000     0.500000000000     0          
H741     H      0.218800000000     0.218800000000     0.000000000000     0          
H742     H      0.718800000000     0.781200000000     0.500000000000     0          
H743     H      0.218800000000     0.281200000000     0.500000000000     0          
H744     H      0.218800000000     0.781200000000     0.000000000000     0          
H745     H      0.000000000000     0.281200000000     0.281200000000     0          
H746     H      0.000000000000     0.781200000000     0.781200000000     0          
H747     H      0.500000000000     0.281200000000     0.781200000000     0          
H748     H      0.000000000000     0.281200000000     0.718800000000     0          
H749     H      0.000000000000     0.781200000000     0.218800000000     0          
H750     H      0.500000000000     0.281200000000     0.218800000000     0          
H751     H      0.500000000000     0.718800000000     0.218800000000     0          
H752     H      0.500000000000     0.718800000000     0.781200000000     0          


