data_SOQSAU

_audit_creation_method RASPA-1.0
_audit_creation_date 2020-11-2
_audit_author_name 'Rocio Bueno-Perez'

_cell_length_a    26.0512
_cell_length_b    26.0512
_cell_length_c    26.0512
_cell_angle_alpha 90
_cell_angle_beta  90
_cell_angle_gamma 90
_cell_volume      17680

_symmetry_cell_setting          cubic
_symmetry_space_group_name_Hall 'P 1'
_symmetry_space_group_name_H-M  'P 1'
_symmetry_Int_Tables_number     1

_symmetry_equiv_pos_as_xyz 'x,y,z'

loop_
_atom_site_label
_atom_site_type_symbol
_atom_site_fract_x
_atom_site_fract_y
_atom_site_fract_z
_atom_site_charge
Zr1      Zr     0.015320000000     0.908160000000     0.981710000000     0          
O1       O      0.034230000000     0.855510000000     0.045130000000     0          
O2       O      0.062100000000     0.955400000000     0.029400000000     0          
O4       O      0.035230000000     0.904590000000     0.118370000000     0          
O5       O      0.985920000000     0.550480000000     0.353720000000     0          
O6       O      0.007790000000     0.620270000000     0.401660000000     0          
C1       C      0.034500000000     0.862500000000     0.094000000000     0          
C2       C      0.033200000000     0.814400000000     0.125400000000     0          
C3       C      0.026000000000     0.767200000000     0.101500000000     0          
C4       C      0.034500000000     0.817800000000     0.178300000000     0          
H1       H      0.023200000000     0.765700000000     0.065200000000     0          
C5       C      0.022900000000     0.722000000000     0.130400000000     0          
C6       C      0.028000000000     0.771900000000     0.206300000000     0          
H2       H      0.039500000000     0.849700000000     0.195200000000     0          
H3       H      0.021500000000     0.689500000000     0.113800000000     0          
C7       C      0.021900000000     0.725100000000     0.183500000000     0          
C8       C      0.026800000000     0.765700000000     0.263800000000     0          
C9       C      0.014900000000     0.685400000000     0.223200000000     0          
O7       O      0.031000000000     0.797000000000     0.295800000000     0          
C10      C      0.018400000000     0.708800000000     0.269900000000     0          
C11      C      0.007300000000     0.633100000000     0.219100000000     0          
C12      C      0.011300000000     0.680800000000     0.315600000000     0          
H4       H      0.006500000000     0.616800000000     0.186500000000     0          
C13      C      0.000900000000     0.605200000000     0.264000000000     0          
C14      C      0.002800000000     0.629000000000     0.311800000000     0          
H5       H      0.012500000000     0.697300000000     0.348100000000     0          
H6       H      0.995100000000     0.569200000000     0.262000000000     0          
C15      C      0.998900000000     0.597360000000     0.360200000000     0          
O3       O      0.952080000000     0.952080000000     0.952080000000     0          
Zr1      Zr     0.484680000000     0.091840000000     0.481710000000     0          
O1       O      0.465770000000     0.144490000000     0.545130000000     0          
O2       O      0.437900000000     0.044600000000     0.529400000000     0          
O4       O      0.464770000000     0.095410000000     0.618370000000     0          
O5       O      0.514080000000     0.449520000000     0.853720000000     0          
O6       O      0.492210000000     0.379730000000     0.901660000000     0          
C1       C      0.465500000000     0.137500000000     0.594000000000     0          
C2       C      0.466800000000     0.185600000000     0.625400000000     0          
C3       C      0.474000000000     0.232800000000     0.601500000000     0          
C4       C      0.465500000000     0.182200000000     0.678300000000     0          
H1       H      0.476800000000     0.234300000000     0.565200000000     0          
C5       C      0.477100000000     0.278000000000     0.630400000000     0          
C6       C      0.472000000000     0.228100000000     0.706300000000     0          
H2       H      0.460500000000     0.150300000000     0.695200000000     0          
H3       H      0.478500000000     0.310500000000     0.613800000000     0          
C7       C      0.478100000000     0.274900000000     0.683500000000     0          
C8       C      0.473200000000     0.234300000000     0.763800000000     0          
C9       C      0.485100000000     0.314600000000     0.723200000000     0          
O7       O      0.469000000000     0.203000000000     0.795800000000     0          
C10      C      0.481600000000     0.291200000000     0.769900000000     0          
C11      C      0.492700000000     0.366900000000     0.719100000000     0          
C12      C      0.488700000000     0.319200000000     0.815600000000     0          
H4       H      0.493500000000     0.383200000000     0.686500000000     0          
C13      C      0.499100000000     0.394800000000     0.764000000000     0          
C14      C      0.497200000000     0.371000000000     0.811800000000     0          
H5       H      0.487500000000     0.302700000000     0.848100000000     0          
H6       H      0.504900000000     0.430800000000     0.762000000000     0          
C15      C      0.501100000000     0.402640000000     0.860200000000     0          
O3       O      0.547920000000     0.047920000000     0.452080000000     0          
Zr1      Zr     0.515320000000     0.591840000000     0.018290000000     0          
O1       O      0.534230000000     0.644490000000     0.954870000000     0          
O2       O      0.562100000000     0.544600000000     0.970600000000     0          
O4       O      0.535230000000     0.595410000000     0.881630000000     0          
O5       O      0.485920000000     0.949520000000     0.646280000000     0          
O6       O      0.507790000000     0.879730000000     0.598340000000     0          
C1       C      0.534500000000     0.637500000000     0.906000000000     0          
C2       C      0.533200000000     0.685600000000     0.874600000000     0          
C3       C      0.526000000000     0.732800000000     0.898500000000     0          
C4       C      0.534500000000     0.682200000000     0.821700000000     0          
H1       H      0.523200000000     0.734300000000     0.934800000000     0          
C5       C      0.522900000000     0.778000000000     0.869600000000     0          
C6       C      0.528000000000     0.728100000000     0.793700000000     0          
H2       H      0.539500000000     0.650300000000     0.804800000000     0          
H3       H      0.521500000000     0.810500000000     0.886200000000     0          
C7       C      0.521900000000     0.774900000000     0.816500000000     0          
C8       C      0.526800000000     0.734300000000     0.736200000000     0          
C9       C      0.514900000000     0.814600000000     0.776800000000     0          
O7       O      0.531000000000     0.703000000000     0.704200000000     0          
C10      C      0.518400000000     0.791200000000     0.730100000000     0          
C11      C      0.507300000000     0.866900000000     0.780900000000     0          
C12      C      0.511300000000     0.819200000000     0.684400000000     0          
H4       H      0.506500000000     0.883200000000     0.813500000000     0          
C13      C      0.500900000000     0.894800000000     0.736000000000     0          
C14      C      0.502800000000     0.871000000000     0.688200000000     0          
H5       H      0.512500000000     0.802700000000     0.651900000000     0          
H6       H      0.495100000000     0.930800000000     0.738000000000     0          
C15      C      0.498900000000     0.902640000000     0.639800000000     0          
O3       O      0.452080000000     0.547920000000     0.047920000000     0          
Zr1      Zr     0.984680000000     0.408160000000     0.518290000000     0          
O1       O      0.965770000000     0.355510000000     0.454870000000     0          
O2       O      0.937900000000     0.455400000000     0.470600000000     0          
O4       O      0.964770000000     0.404590000000     0.381630000000     0          
O5       O      0.014080000000     0.050480000000     0.146280000000     0          
O6       O      0.992210000000     0.120270000000     0.098340000000     0          
C1       C      0.965500000000     0.362500000000     0.406000000000     0          
C2       C      0.966800000000     0.314400000000     0.374600000000     0          
C3       C      0.974000000000     0.267200000000     0.398500000000     0          
C4       C      0.965500000000     0.317800000000     0.321700000000     0          
H1       H      0.976800000000     0.265700000000     0.434800000000     0          
C5       C      0.977100000000     0.222000000000     0.369600000000     0          
C6       C      0.972000000000     0.271900000000     0.293700000000     0          
H2       H      0.960500000000     0.349700000000     0.304800000000     0          
H3       H      0.978500000000     0.189500000000     0.386200000000     0          
C7       C      0.978100000000     0.225100000000     0.316500000000     0          
C8       C      0.973200000000     0.265700000000     0.236200000000     0          
C9       C      0.985100000000     0.185400000000     0.276800000000     0          
O7       O      0.969000000000     0.297000000000     0.204200000000     0          
C10      C      0.981600000000     0.208800000000     0.230100000000     0          
C11      C      0.992700000000     0.133100000000     0.280900000000     0          
C12      C      0.988700000000     0.180800000000     0.184400000000     0          
H4       H      0.993500000000     0.116800000000     0.313500000000     0          
C13      C      0.999100000000     0.105200000000     0.236000000000     0          
C14      C      0.997200000000     0.129000000000     0.188200000000     0          
H5       H      0.987500000000     0.197300000000     0.151900000000     0          
H6       H      0.004900000000     0.069200000000     0.238000000000     0          
C15      C      0.001100000000     0.097360000000     0.139800000000     0          
O3       O      0.047920000000     0.452080000000     0.547920000000     0          
Zr1      Zr     0.981710000000     0.015320000000     0.908160000000     0          
O1       O      0.045130000000     0.034230000000     0.855510000000     0          
O2       O      0.029400000000     0.062100000000     0.955400000000     0          
O4       O      0.118370000000     0.035230000000     0.904590000000     0          
O5       O      0.353720000000     0.985920000000     0.550480000000     0          
O6       O      0.401660000000     0.007790000000     0.620270000000     0          
C1       C      0.094000000000     0.034500000000     0.862500000000     0          
C2       C      0.125400000000     0.033200000000     0.814400000000     0          
C3       C      0.101500000000     0.026000000000     0.767200000000     0          
C4       C      0.178300000000     0.034500000000     0.817800000000     0          
H1       H      0.065200000000     0.023200000000     0.765700000000     0          
C5       C      0.130400000000     0.022900000000     0.722000000000     0          
C6       C      0.206300000000     0.028000000000     0.771900000000     0          
H2       H      0.195200000000     0.039500000000     0.849700000000     0          
H3       H      0.113800000000     0.021500000000     0.689500000000     0          
C7       C      0.183500000000     0.021900000000     0.725100000000     0          
C8       C      0.263800000000     0.026800000000     0.765700000000     0          
C9       C      0.223200000000     0.014900000000     0.685400000000     0          
O7       O      0.295800000000     0.031000000000     0.797000000000     0          
C10      C      0.269900000000     0.018400000000     0.708800000000     0          
C11      C      0.219100000000     0.007300000000     0.633100000000     0          
C12      C      0.315600000000     0.011300000000     0.680800000000     0          
H4       H      0.186500000000     0.006500000000     0.616800000000     0          
C13      C      0.264000000000     0.000900000000     0.605200000000     0          
C14      C      0.311800000000     0.002800000000     0.629000000000     0          
H5       H      0.348100000000     0.012500000000     0.697300000000     0          
H6       H      0.262000000000     0.995100000000     0.569200000000     0          
C15      C      0.360200000000     0.998900000000     0.597360000000     0          
Zr1      Zr     0.518290000000     0.984680000000     0.408160000000     0          
O1       O      0.454870000000     0.965770000000     0.355510000000     0          
O2       O      0.470600000000     0.937900000000     0.455400000000     0          
O4       O      0.381630000000     0.964770000000     0.404590000000     0          
O5       O      0.146280000000     0.014080000000     0.050480000000     0          
O6       O      0.098340000000     0.992210000000     0.120270000000     0          
C1       C      0.406000000000     0.965500000000     0.362500000000     0          
C2       C      0.374600000000     0.966800000000     0.314400000000     0          
C3       C      0.398500000000     0.974000000000     0.267200000000     0          
C4       C      0.321700000000     0.965500000000     0.317800000000     0          
H1       H      0.434800000000     0.976800000000     0.265700000000     0          
C5       C      0.369600000000     0.977100000000     0.222000000000     0          
C6       C      0.293700000000     0.972000000000     0.271900000000     0          
H2       H      0.304800000000     0.960500000000     0.349700000000     0          
H3       H      0.386200000000     0.978500000000     0.189500000000     0          
C7       C      0.316500000000     0.978100000000     0.225100000000     0          
C8       C      0.236200000000     0.973200000000     0.265700000000     0          
C9       C      0.276800000000     0.985100000000     0.185400000000     0          
O7       O      0.204200000000     0.969000000000     0.297000000000     0          
C10      C      0.230100000000     0.981600000000     0.208800000000     0          
C11      C      0.280900000000     0.992700000000     0.133100000000     0          
C12      C      0.184400000000     0.988700000000     0.180800000000     0          
H4       H      0.313500000000     0.993500000000     0.116800000000     0          
C13      C      0.236000000000     0.999100000000     0.105200000000     0          
C14      C      0.188200000000     0.997200000000     0.129000000000     0          
H5       H      0.151900000000     0.987500000000     0.197300000000     0          
H6       H      0.238000000000     0.004900000000     0.069200000000     0          
C15      C      0.139800000000     0.001100000000     0.097360000000     0          
Zr1      Zr     0.481710000000     0.484680000000     0.091840000000     0          
O1       O      0.545130000000     0.465770000000     0.144490000000     0          
O2       O      0.529400000000     0.437900000000     0.044600000000     0          
O4       O      0.618370000000     0.464770000000     0.095410000000     0          
O5       O      0.853720000000     0.514080000000     0.449520000000     0          
O6       O      0.901660000000     0.492210000000     0.379730000000     0          
C1       C      0.594000000000     0.465500000000     0.137500000000     0          
C2       C      0.625400000000     0.466800000000     0.185600000000     0          
C3       C      0.601500000000     0.474000000000     0.232800000000     0          
C4       C      0.678300000000     0.465500000000     0.182200000000     0          
H1       H      0.565200000000     0.476800000000     0.234300000000     0          
C5       C      0.630400000000     0.477100000000     0.278000000000     0          
C6       C      0.706300000000     0.472000000000     0.228100000000     0          
H2       H      0.695200000000     0.460500000000     0.150300000000     0          
H3       H      0.613800000000     0.478500000000     0.310500000000     0          
C7       C      0.683500000000     0.478100000000     0.274900000000     0          
C8       C      0.763800000000     0.473200000000     0.234300000000     0          
C9       C      0.723200000000     0.485100000000     0.314600000000     0          
O7       O      0.795800000000     0.469000000000     0.203000000000     0          
C10      C      0.769900000000     0.481600000000     0.291200000000     0          
C11      C      0.719100000000     0.492700000000     0.366900000000     0          
C12      C      0.815600000000     0.488700000000     0.319200000000     0          
H4       H      0.686500000000     0.493500000000     0.383200000000     0          
C13      C      0.764000000000     0.499100000000     0.394800000000     0          
C14      C      0.811800000000     0.497200000000     0.371000000000     0          
H5       H      0.848100000000     0.487500000000     0.302700000000     0          
H6       H      0.762000000000     0.504900000000     0.430800000000     0          
C15      C      0.860200000000     0.501100000000     0.402640000000     0          
Zr1      Zr     0.018290000000     0.515320000000     0.591840000000     0          
O1       O      0.954870000000     0.534230000000     0.644490000000     0          
O2       O      0.970600000000     0.562100000000     0.544600000000     0          
O4       O      0.881630000000     0.535230000000     0.595410000000     0          
O5       O      0.646280000000     0.485920000000     0.949520000000     0          
O6       O      0.598340000000     0.507790000000     0.879730000000     0          
C1       C      0.906000000000     0.534500000000     0.637500000000     0          
C2       C      0.874600000000     0.533200000000     0.685600000000     0          
C3       C      0.898500000000     0.526000000000     0.732800000000     0          
C4       C      0.821700000000     0.534500000000     0.682200000000     0          
H1       H      0.934800000000     0.523200000000     0.734300000000     0          
C5       C      0.869600000000     0.522900000000     0.778000000000     0          
C6       C      0.793700000000     0.528000000000     0.728100000000     0          
H2       H      0.804800000000     0.539500000000     0.650300000000     0          
H3       H      0.886200000000     0.521500000000     0.810500000000     0          
C7       C      0.816500000000     0.521900000000     0.774900000000     0          
C8       C      0.736200000000     0.526800000000     0.734300000000     0          
C9       C      0.776800000000     0.514900000000     0.814600000000     0          
O7       O      0.704200000000     0.531000000000     0.703000000000     0          
C10      C      0.730100000000     0.518400000000     0.791200000000     0          
C11      C      0.780900000000     0.507300000000     0.866900000000     0          
C12      C      0.684400000000     0.511300000000     0.819200000000     0          
H4       H      0.813500000000     0.506500000000     0.883200000000     0          
C13      C      0.736000000000     0.500900000000     0.894800000000     0          
C14      C      0.688200000000     0.502800000000     0.871000000000     0          
H5       H      0.651900000000     0.512500000000     0.802700000000     0          
H6       H      0.738000000000     0.495100000000     0.930800000000     0          
C15      C      0.639800000000     0.498900000000     0.902640000000     0          
Zr1      Zr     0.908160000000     0.981710000000     0.015320000000     0          
O1       O      0.855510000000     0.045130000000     0.034230000000     0          
O2       O      0.955400000000     0.029400000000     0.062100000000     0          
O4       O      0.904590000000     0.118370000000     0.035230000000     0          
O5       O      0.550480000000     0.353720000000     0.985920000000     0          
O6       O      0.620270000000     0.401660000000     0.007790000000     0          
C1       C      0.862500000000     0.094000000000     0.034500000000     0          
C2       C      0.814400000000     0.125400000000     0.033200000000     0          
C3       C      0.767200000000     0.101500000000     0.026000000000     0          
C4       C      0.817800000000     0.178300000000     0.034500000000     0          
H1       H      0.765700000000     0.065200000000     0.023200000000     0          
C5       C      0.722000000000     0.130400000000     0.022900000000     0          
C6       C      0.771900000000     0.206300000000     0.028000000000     0          
H2       H      0.849700000000     0.195200000000     0.039500000000     0          
H3       H      0.689500000000     0.113800000000     0.021500000000     0          
C7       C      0.725100000000     0.183500000000     0.021900000000     0          
C8       C      0.765700000000     0.263800000000     0.026800000000     0          
C9       C      0.685400000000     0.223200000000     0.014900000000     0          
O7       O      0.797000000000     0.295800000000     0.031000000000     0          
C10      C      0.708800000000     0.269900000000     0.018400000000     0          
C11      C      0.633100000000     0.219100000000     0.007300000000     0          
C12      C      0.680800000000     0.315600000000     0.011300000000     0          
H4       H      0.616800000000     0.186500000000     0.006500000000     0          
C13      C      0.605200000000     0.264000000000     0.000900000000     0          
C14      C      0.629000000000     0.311800000000     0.002800000000     0          
H5       H      0.697300000000     0.348100000000     0.012500000000     0          
H6       H      0.569200000000     0.262000000000     0.995100000000     0          
C15      C      0.597360000000     0.360200000000     0.998900000000     0          
Zr1      Zr     0.408160000000     0.518290000000     0.984680000000     0          
O1       O      0.355510000000     0.454870000000     0.965770000000     0          
O2       O      0.455400000000     0.470600000000     0.937900000000     0          
O4       O      0.404590000000     0.381630000000     0.964770000000     0          
O5       O      0.050480000000     0.146280000000     0.014080000000     0          
O6       O      0.120270000000     0.098340000000     0.992210000000     0          
C1       C      0.362500000000     0.406000000000     0.965500000000     0          
C2       C      0.314400000000     0.374600000000     0.966800000000     0          
C3       C      0.267200000000     0.398500000000     0.974000000000     0          
C4       C      0.317800000000     0.321700000000     0.965500000000     0          
H1       H      0.265700000000     0.434800000000     0.976800000000     0          
C5       C      0.222000000000     0.369600000000     0.977100000000     0          
C6       C      0.271900000000     0.293700000000     0.972000000000     0          
H2       H      0.349700000000     0.304800000000     0.960500000000     0          
H3       H      0.189500000000     0.386200000000     0.978500000000     0          
C7       C      0.225100000000     0.316500000000     0.978100000000     0          
C8       C      0.265700000000     0.236200000000     0.973200000000     0          
C9       C      0.185400000000     0.276800000000     0.985100000000     0          
O7       O      0.297000000000     0.204200000000     0.969000000000     0          
C10      C      0.208800000000     0.230100000000     0.981600000000     0          
C11      C      0.133100000000     0.280900000000     0.992700000000     0          
C12      C      0.180800000000     0.184400000000     0.988700000000     0          
H4       H      0.116800000000     0.313500000000     0.993500000000     0          
C13      C      0.105200000000     0.236000000000     0.999100000000     0          
C14      C      0.129000000000     0.188200000000     0.997200000000     0          
H5       H      0.197300000000     0.151900000000     0.987500000000     0          
H6       H      0.069200000000     0.238000000000     0.004900000000     0          
C15      C      0.097360000000     0.139800000000     0.001100000000     0          
Zr1      Zr     0.091840000000     0.481710000000     0.484680000000     0          
O1       O      0.144490000000     0.545130000000     0.465770000000     0          
O2       O      0.044600000000     0.529400000000     0.437900000000     0          
O4       O      0.095410000000     0.618370000000     0.464770000000     0          
O5       O      0.449520000000     0.853720000000     0.514080000000     0          
O6       O      0.379730000000     0.901660000000     0.492210000000     0          
C1       C      0.137500000000     0.594000000000     0.465500000000     0          
C2       C      0.185600000000     0.625400000000     0.466800000000     0          
C3       C      0.232800000000     0.601500000000     0.474000000000     0          
C4       C      0.182200000000     0.678300000000     0.465500000000     0          
H1       H      0.234300000000     0.565200000000     0.476800000000     0          
C5       C      0.278000000000     0.630400000000     0.477100000000     0          
C6       C      0.228100000000     0.706300000000     0.472000000000     0          
H2       H      0.150300000000     0.695200000000     0.460500000000     0          
H3       H      0.310500000000     0.613800000000     0.478500000000     0          
C7       C      0.274900000000     0.683500000000     0.478100000000     0          
C8       C      0.234300000000     0.763800000000     0.473200000000     0          
C9       C      0.314600000000     0.723200000000     0.485100000000     0          
O7       O      0.203000000000     0.795800000000     0.469000000000     0          
C10      C      0.291200000000     0.769900000000     0.481600000000     0          
C11      C      0.366900000000     0.719100000000     0.492700000000     0          
C12      C      0.319200000000     0.815600000000     0.488700000000     0          
H4       H      0.383200000000     0.686500000000     0.493500000000     0          
C13      C      0.394800000000     0.764000000000     0.499100000000     0          
C14      C      0.371000000000     0.811800000000     0.497200000000     0          
H5       H      0.302700000000     0.848100000000     0.487500000000     0          
H6       H      0.430800000000     0.762000000000     0.504900000000     0          
C15      C      0.402640000000     0.860200000000     0.501100000000     0          
Zr1      Zr     0.591840000000     0.018290000000     0.515320000000     0          
O1       O      0.644490000000     0.954870000000     0.534230000000     0          
O2       O      0.544600000000     0.970600000000     0.562100000000     0          
O4       O      0.595410000000     0.881630000000     0.535230000000     0          
O5       O      0.949520000000     0.646280000000     0.485920000000     0          
O6       O      0.879730000000     0.598340000000     0.507790000000     0          
C1       C      0.637500000000     0.906000000000     0.534500000000     0          
C2       C      0.685600000000     0.874600000000     0.533200000000     0          
C3       C      0.732800000000     0.898500000000     0.526000000000     0          
C4       C      0.682200000000     0.821700000000     0.534500000000     0          
H1       H      0.734300000000     0.934800000000     0.523200000000     0          
C5       C      0.778000000000     0.869600000000     0.522900000000     0          
C6       C      0.728100000000     0.793700000000     0.528000000000     0          
H2       H      0.650300000000     0.804800000000     0.539500000000     0          
H3       H      0.810500000000     0.886200000000     0.521500000000     0          
C7       C      0.774900000000     0.816500000000     0.521900000000     0          
C8       C      0.734300000000     0.736200000000     0.526800000000     0          
C9       C      0.814600000000     0.776800000000     0.514900000000     0          
O7       O      0.703000000000     0.704200000000     0.531000000000     0          
C10      C      0.791200000000     0.730100000000     0.518400000000     0          
C11      C      0.866900000000     0.780900000000     0.507300000000     0          
C12      C      0.819200000000     0.684400000000     0.511300000000     0          
H4       H      0.883200000000     0.813500000000     0.506500000000     0          
C13      C      0.894800000000     0.736000000000     0.500900000000     0          
C14      C      0.871000000000     0.688200000000     0.502800000000     0          
H5       H      0.802700000000     0.651900000000     0.512500000000     0          
H6       H      0.930800000000     0.738000000000     0.495100000000     0          
C15      C      0.902640000000     0.639800000000     0.498900000000     0          
Zr1      Zr     0.984680000000     0.091840000000     0.018290000000     0          
O1       O      0.965770000000     0.144490000000     0.954870000000     0          
O2       O      0.937900000000     0.044600000000     0.970600000000     0          
O4       O      0.964770000000     0.095410000000     0.881630000000     0          
O5       O      0.014080000000     0.449520000000     0.646280000000     0          
O6       O      0.992210000000     0.379730000000     0.598340000000     0          
C1       C      0.965500000000     0.137500000000     0.906000000000     0          
C2       C      0.966800000000     0.185600000000     0.874600000000     0          
C3       C      0.974000000000     0.232800000000     0.898500000000     0          
C4       C      0.965500000000     0.182200000000     0.821700000000     0          
H1       H      0.976800000000     0.234300000000     0.934800000000     0          
C5       C      0.977100000000     0.278000000000     0.869600000000     0          
C6       C      0.972000000000     0.228100000000     0.793700000000     0          
H2       H      0.960500000000     0.150300000000     0.804800000000     0          
H3       H      0.978500000000     0.310500000000     0.886200000000     0          
C7       C      0.978100000000     0.274900000000     0.816500000000     0          
C8       C      0.973200000000     0.234300000000     0.736200000000     0          
C9       C      0.985100000000     0.314600000000     0.776800000000     0          
O7       O      0.969000000000     0.203000000000     0.704200000000     0          
C10      C      0.981600000000     0.291200000000     0.730100000000     0          
C11      C      0.992700000000     0.366900000000     0.780900000000     0          
C12      C      0.988700000000     0.319200000000     0.684400000000     0          
H4       H      0.993500000000     0.383200000000     0.813500000000     0          
C13      C      0.999100000000     0.394800000000     0.736000000000     0          
C14      C      0.997200000000     0.371000000000     0.688200000000     0          
H5       H      0.987500000000     0.302700000000     0.651900000000     0          
H6       H      0.004900000000     0.430800000000     0.738000000000     0          
C15      C      0.001100000000     0.402640000000     0.639800000000     0          
O3       O      0.047920000000     0.047920000000     0.047920000000     0          
Zr1      Zr     0.515320000000     0.908160000000     0.518290000000     0          
O1       O      0.534230000000     0.855510000000     0.454870000000     0          
O2       O      0.562100000000     0.955400000000     0.470600000000     0          
O4       O      0.535230000000     0.904590000000     0.381630000000     0          
O5       O      0.485920000000     0.550480000000     0.146280000000     0          
O6       O      0.507790000000     0.620270000000     0.098340000000     0          
C1       C      0.534500000000     0.862500000000     0.406000000000     0          
C2       C      0.533200000000     0.814400000000     0.374600000000     0          
C3       C      0.526000000000     0.767200000000     0.398500000000     0          
C4       C      0.534500000000     0.817800000000     0.321700000000     0          
H1       H      0.523200000000     0.765700000000     0.434800000000     0          
C5       C      0.522900000000     0.722000000000     0.369600000000     0          
C6       C      0.528000000000     0.771900000000     0.293700000000     0          
H2       H      0.539500000000     0.849700000000     0.304800000000     0          
H3       H      0.521500000000     0.689500000000     0.386200000000     0          
C7       C      0.521900000000     0.725100000000     0.316500000000     0          
C8       C      0.526800000000     0.765700000000     0.236200000000     0          
C9       C      0.514900000000     0.685400000000     0.276800000000     0          
O7       O      0.531000000000     0.797000000000     0.204200000000     0          
C10      C      0.518400000000     0.708800000000     0.230100000000     0          
C11      C      0.507300000000     0.633100000000     0.280900000000     0          
C12      C      0.511300000000     0.680800000000     0.184400000000     0          
H4       H      0.506500000000     0.616800000000     0.313500000000     0          
C13      C      0.500900000000     0.605200000000     0.236000000000     0          
C14      C      0.502800000000     0.629000000000     0.188200000000     0          
H5       H      0.512500000000     0.697300000000     0.151900000000     0          
H6       H      0.495100000000     0.569200000000     0.238000000000     0          
C15      C      0.498900000000     0.597360000000     0.139800000000     0          
O3       O      0.452080000000     0.952080000000     0.547920000000     0          
Zr1      Zr     0.484680000000     0.408160000000     0.981710000000     0          
O1       O      0.465770000000     0.355510000000     0.045130000000     0          
O2       O      0.437900000000     0.455400000000     0.029400000000     0          
O4       O      0.464770000000     0.404590000000     0.118370000000     0          
O5       O      0.514080000000     0.050480000000     0.353720000000     0          
O6       O      0.492210000000     0.120270000000     0.401660000000     0          
C1       C      0.465500000000     0.362500000000     0.094000000000     0          
C2       C      0.466800000000     0.314400000000     0.125400000000     0          
C3       C      0.474000000000     0.267200000000     0.101500000000     0          
C4       C      0.465500000000     0.317800000000     0.178300000000     0          
H1       H      0.476800000000     0.265700000000     0.065200000000     0          
C5       C      0.477100000000     0.222000000000     0.130400000000     0          
C6       C      0.472000000000     0.271900000000     0.206300000000     0          
H2       H      0.460500000000     0.349700000000     0.195200000000     0          
H3       H      0.478500000000     0.189500000000     0.113800000000     0          
C7       C      0.478100000000     0.225100000000     0.183500000000     0          
C8       C      0.473200000000     0.265700000000     0.263800000000     0          
C9       C      0.485100000000     0.185400000000     0.223200000000     0          
O7       O      0.469000000000     0.297000000000     0.295800000000     0          
C10      C      0.481600000000     0.208800000000     0.269900000000     0          
C11      C      0.492700000000     0.133100000000     0.219100000000     0          
C12      C      0.488700000000     0.180800000000     0.315600000000     0          
H4       H      0.493500000000     0.116800000000     0.186500000000     0          
C13      C      0.499100000000     0.105200000000     0.264000000000     0          
C14      C      0.497200000000     0.129000000000     0.311800000000     0          
H5       H      0.487500000000     0.197300000000     0.348100000000     0          
H6       H      0.504900000000     0.069200000000     0.262000000000     0          
C15      C      0.501100000000     0.097360000000     0.360200000000     0          
O3       O      0.547920000000     0.452080000000     0.952080000000     0          
Zr1      Zr     0.015320000000     0.591840000000     0.481710000000     0          
O1       O      0.034230000000     0.644490000000     0.545130000000     0          
O2       O      0.062100000000     0.544600000000     0.529400000000     0          
O4       O      0.035230000000     0.595410000000     0.618370000000     0          
O5       O      0.985920000000     0.949520000000     0.853720000000     0          
O6       O      0.007790000000     0.879730000000     0.901660000000     0          
C1       C      0.034500000000     0.637500000000     0.594000000000     0          
C2       C      0.033200000000     0.685600000000     0.625400000000     0          
C3       C      0.026000000000     0.732800000000     0.601500000000     0          
C4       C      0.034500000000     0.682200000000     0.678300000000     0          
H1       H      0.023200000000     0.734300000000     0.565200000000     0          
C5       C      0.022900000000     0.778000000000     0.630400000000     0          
C6       C      0.028000000000     0.728100000000     0.706300000000     0          
H2       H      0.039500000000     0.650300000000     0.695200000000     0          
H3       H      0.021500000000     0.810500000000     0.613800000000     0          
C7       C      0.021900000000     0.774900000000     0.683500000000     0          
C8       C      0.026800000000     0.734300000000     0.763800000000     0          
C9       C      0.014900000000     0.814600000000     0.723200000000     0          
O7       O      0.031000000000     0.703000000000     0.795800000000     0          
C10      C      0.018400000000     0.791200000000     0.769900000000     0          
C11      C      0.007300000000     0.866900000000     0.719100000000     0          
C12      C      0.011300000000     0.819200000000     0.815600000000     0          
H4       H      0.006500000000     0.883200000000     0.686500000000     0          
C13      C      0.000900000000     0.894800000000     0.764000000000     0          
C14      C      0.002800000000     0.871000000000     0.811800000000     0          
H5       H      0.012500000000     0.802700000000     0.848100000000     0          
H6       H      0.995100000000     0.930800000000     0.762000000000     0          
C15      C      0.998900000000     0.902640000000     0.860200000000     0          
O3       O      0.952080000000     0.547920000000     0.452080000000     0          
Zr1      Zr     0.018290000000     0.984680000000     0.091840000000     0          
O1       O      0.954870000000     0.965770000000     0.144490000000     0          
O2       O      0.970600000000     0.937900000000     0.044600000000     0          
O4       O      0.881630000000     0.964770000000     0.095410000000     0          
O5       O      0.646280000000     0.014080000000     0.449520000000     0          
O6       O      0.598340000000     0.992210000000     0.379730000000     0          
C1       C      0.906000000000     0.965500000000     0.137500000000     0          
C2       C      0.874600000000     0.966800000000     0.185600000000     0          
C3       C      0.898500000000     0.974000000000     0.232800000000     0          
C4       C      0.821700000000     0.965500000000     0.182200000000     0          
H1       H      0.934800000000     0.976800000000     0.234300000000     0          
C5       C      0.869600000000     0.977100000000     0.278000000000     0          
C6       C      0.793700000000     0.972000000000     0.228100000000     0          
H2       H      0.804800000000     0.960500000000     0.150300000000     0          
H3       H      0.886200000000     0.978500000000     0.310500000000     0          
C7       C      0.816500000000     0.978100000000     0.274900000000     0          
C8       C      0.736200000000     0.973200000000     0.234300000000     0          
C9       C      0.776800000000     0.985100000000     0.314600000000     0          
O7       O      0.704200000000     0.969000000000     0.203000000000     0          
C10      C      0.730100000000     0.981600000000     0.291200000000     0          
C11      C      0.780900000000     0.992700000000     0.366900000000     0          
C12      C      0.684400000000     0.988700000000     0.319200000000     0          
H4       H      0.813500000000     0.993500000000     0.383200000000     0          
C13      C      0.736000000000     0.999100000000     0.394800000000     0          
C14      C      0.688200000000     0.997200000000     0.371000000000     0          
H5       H      0.651900000000     0.987500000000     0.302700000000     0          
H6       H      0.738000000000     0.004900000000     0.430800000000     0          
C15      C      0.639800000000     0.001100000000     0.402640000000     0          
Zr1      Zr     0.481710000000     0.015320000000     0.591840000000     0          
O1       O      0.545130000000     0.034230000000     0.644490000000     0          
O2       O      0.529400000000     0.062100000000     0.544600000000     0          
O4       O      0.618370000000     0.035230000000     0.595410000000     0          
O5       O      0.853720000000     0.985920000000     0.949520000000     0          
O6       O      0.901660000000     0.007790000000     0.879730000000     0          
C1       C      0.594000000000     0.034500000000     0.637500000000     0          
C2       C      0.625400000000     0.033200000000     0.685600000000     0          
C3       C      0.601500000000     0.026000000000     0.732800000000     0          
C4       C      0.678300000000     0.034500000000     0.682200000000     0          
H1       H      0.565200000000     0.023200000000     0.734300000000     0          
C5       C      0.630400000000     0.022900000000     0.778000000000     0          
C6       C      0.706300000000     0.028000000000     0.728100000000     0          
H2       H      0.695200000000     0.039500000000     0.650300000000     0          
H3       H      0.613800000000     0.021500000000     0.810500000000     0          
C7       C      0.683500000000     0.021900000000     0.774900000000     0          
C8       C      0.763800000000     0.026800000000     0.734300000000     0          
C9       C      0.723200000000     0.014900000000     0.814600000000     0          
O7       O      0.795800000000     0.031000000000     0.703000000000     0          
C10      C      0.769900000000     0.018400000000     0.791200000000     0          
C11      C      0.719100000000     0.007300000000     0.866900000000     0          
C12      C      0.815600000000     0.011300000000     0.819200000000     0          
H4       H      0.686500000000     0.006500000000     0.883200000000     0          
C13      C      0.764000000000     0.000900000000     0.894800000000     0          
C14      C      0.811800000000     0.002800000000     0.871000000000     0          
H5       H      0.848100000000     0.012500000000     0.802700000000     0          
H6       H      0.762000000000     0.995100000000     0.930800000000     0          
C15      C      0.860200000000     0.998900000000     0.902640000000     0          
Zr1      Zr     0.518290000000     0.515320000000     0.908160000000     0          
O1       O      0.454870000000     0.534230000000     0.855510000000     0          
O2       O      0.470600000000     0.562100000000     0.955400000000     0          
O4       O      0.381630000000     0.535230000000     0.904590000000     0          
O5       O      0.146280000000     0.485920000000     0.550480000000     0          
O6       O      0.098340000000     0.507790000000     0.620270000000     0          
C1       C      0.406000000000     0.534500000000     0.862500000000     0          
C2       C      0.374600000000     0.533200000000     0.814400000000     0          
C3       C      0.398500000000     0.526000000000     0.767200000000     0          
C4       C      0.321700000000     0.534500000000     0.817800000000     0          
H1       H      0.434800000000     0.523200000000     0.765700000000     0          
C5       C      0.369600000000     0.522900000000     0.722000000000     0          
C6       C      0.293700000000     0.528000000000     0.771900000000     0          
H2       H      0.304800000000     0.539500000000     0.849700000000     0          
H3       H      0.386200000000     0.521500000000     0.689500000000     0          
C7       C      0.316500000000     0.521900000000     0.725100000000     0          
C8       C      0.236200000000     0.526800000000     0.765700000000     0          
C9       C      0.276800000000     0.514900000000     0.685400000000     0          
O7       O      0.204200000000     0.531000000000     0.797000000000     0          
C10      C      0.230100000000     0.518400000000     0.708800000000     0          
C11      C      0.280900000000     0.507300000000     0.633100000000     0          
C12      C      0.184400000000     0.511300000000     0.680800000000     0          
H4       H      0.313500000000     0.506500000000     0.616800000000     0          
C13      C      0.236000000000     0.500900000000     0.605200000000     0          
C14      C      0.188200000000     0.502800000000     0.629000000000     0          
H5       H      0.151900000000     0.512500000000     0.697300000000     0          
H6       H      0.238000000000     0.495100000000     0.569200000000     0          
C15      C      0.139800000000     0.498900000000     0.597360000000     0          
Zr1      Zr     0.981710000000     0.484680000000     0.408160000000     0          
O1       O      0.045130000000     0.465770000000     0.355510000000     0          
O2       O      0.029400000000     0.437900000000     0.455400000000     0          
O4       O      0.118370000000     0.464770000000     0.404590000000     0          
O5       O      0.353720000000     0.514080000000     0.050480000000     0          
O6       O      0.401660000000     0.492210000000     0.120270000000     0          
C1       C      0.094000000000     0.465500000000     0.362500000000     0          
C2       C      0.125400000000     0.466800000000     0.314400000000     0          
C3       C      0.101500000000     0.474000000000     0.267200000000     0          
C4       C      0.178300000000     0.465500000000     0.317800000000     0          
H1       H      0.065200000000     0.476800000000     0.265700000000     0          
C5       C      0.130400000000     0.477100000000     0.222000000000     0          
C6       C      0.206300000000     0.472000000000     0.271900000000     0          
H2       H      0.195200000000     0.460500000000     0.349700000000     0          
H3       H      0.113800000000     0.478500000000     0.189500000000     0          
C7       C      0.183500000000     0.478100000000     0.225100000000     0          
C8       C      0.263800000000     0.473200000000     0.265700000000     0          
C9       C      0.223200000000     0.485100000000     0.185400000000     0          
O7       O      0.295800000000     0.469000000000     0.297000000000     0          
C10      C      0.269900000000     0.481600000000     0.208800000000     0          
C11      C      0.219100000000     0.492700000000     0.133100000000     0          
C12      C      0.315600000000     0.488700000000     0.180800000000     0          
H4       H      0.186500000000     0.493500000000     0.116800000000     0          
C13      C      0.264000000000     0.499100000000     0.105200000000     0          
C14      C      0.311800000000     0.497200000000     0.129000000000     0          
H5       H      0.348100000000     0.487500000000     0.197300000000     0          
H6       H      0.262000000000     0.504900000000     0.069200000000     0          
C15      C      0.360200000000     0.501100000000     0.097360000000     0          
Zr1      Zr     0.091840000000     0.018290000000     0.984680000000     0          
O1       O      0.144490000000     0.954870000000     0.965770000000     0          
O2       O      0.044600000000     0.970600000000     0.937900000000     0          
O4       O      0.095410000000     0.881630000000     0.964770000000     0          
O5       O      0.449520000000     0.646280000000     0.014080000000     0          
O6       O      0.379730000000     0.598340000000     0.992210000000     0          
C1       C      0.137500000000     0.906000000000     0.965500000000     0          
C2       C      0.185600000000     0.874600000000     0.966800000000     0          
C3       C      0.232800000000     0.898500000000     0.974000000000     0          
C4       C      0.182200000000     0.821700000000     0.965500000000     0          
H1       H      0.234300000000     0.934800000000     0.976800000000     0          
C5       C      0.278000000000     0.869600000000     0.977100000000     0          
C6       C      0.228100000000     0.793700000000     0.972000000000     0          
H2       H      0.150300000000     0.804800000000     0.960500000000     0          
H3       H      0.310500000000     0.886200000000     0.978500000000     0          
C7       C      0.274900000000     0.816500000000     0.978100000000     0          
C8       C      0.234300000000     0.736200000000     0.973200000000     0          
C9       C      0.314600000000     0.776800000000     0.985100000000     0          
O7       O      0.203000000000     0.704200000000     0.969000000000     0          
C10      C      0.291200000000     0.730100000000     0.981600000000     0          
C11      C      0.366900000000     0.780900000000     0.992700000000     0          
C12      C      0.319200000000     0.684400000000     0.988700000000     0          
H4       H      0.383200000000     0.813500000000     0.993500000000     0          
C13      C      0.394800000000     0.736000000000     0.999100000000     0          
C14      C      0.371000000000     0.688200000000     0.997200000000     0          
H5       H      0.302700000000     0.651900000000     0.987500000000     0          
H6       H      0.430800000000     0.738000000000     0.004900000000     0          
C15      C      0.402640000000     0.639800000000     0.001100000000     0          
Zr1      Zr     0.591840000000     0.481710000000     0.015320000000     0          
O1       O      0.644490000000     0.545130000000     0.034230000000     0          
O2       O      0.544600000000     0.529400000000     0.062100000000     0          
O4       O      0.595410000000     0.618370000000     0.035230000000     0          
O5       O      0.949520000000     0.853720000000     0.985920000000     0          
O6       O      0.879730000000     0.901660000000     0.007790000000     0          
C1       C      0.637500000000     0.594000000000     0.034500000000     0          
C2       C      0.685600000000     0.625400000000     0.033200000000     0          
C3       C      0.732800000000     0.601500000000     0.026000000000     0          
C4       C      0.682200000000     0.678300000000     0.034500000000     0          
H1       H      0.734300000000     0.565200000000     0.023200000000     0          
C5       C      0.778000000000     0.630400000000     0.022900000000     0          
C6       C      0.728100000000     0.706300000000     0.028000000000     0          
H2       H      0.650300000000     0.695200000000     0.039500000000     0          
H3       H      0.810500000000     0.613800000000     0.021500000000     0          
C7       C      0.774900000000     0.683500000000     0.021900000000     0          
C8       C      0.734300000000     0.763800000000     0.026800000000     0          
C9       C      0.814600000000     0.723200000000     0.014900000000     0          
O7       O      0.703000000000     0.795800000000     0.031000000000     0          
C10      C      0.791200000000     0.769900000000     0.018400000000     0          
C11      C      0.866900000000     0.719100000000     0.007300000000     0          
C12      C      0.819200000000     0.815600000000     0.011300000000     0          
H4       H      0.883200000000     0.686500000000     0.006500000000     0          
C13      C      0.894800000000     0.764000000000     0.000900000000     0          
C14      C      0.871000000000     0.811800000000     0.002800000000     0          
H5       H      0.802700000000     0.848100000000     0.012500000000     0          
H6       H      0.930800000000     0.762000000000     0.995100000000     0          
C15      C      0.902640000000     0.860200000000     0.998900000000     0          
Zr1      Zr     0.908160000000     0.518290000000     0.515320000000     0          
O1       O      0.855510000000     0.454870000000     0.534230000000     0          
O2       O      0.955400000000     0.470600000000     0.562100000000     0          
O4       O      0.904590000000     0.381630000000     0.535230000000     0          
O5       O      0.550480000000     0.146280000000     0.485920000000     0          
O6       O      0.620270000000     0.098340000000     0.507790000000     0          
C1       C      0.862500000000     0.406000000000     0.534500000000     0          
C2       C      0.814400000000     0.374600000000     0.533200000000     0          
C3       C      0.767200000000     0.398500000000     0.526000000000     0          
C4       C      0.817800000000     0.321700000000     0.534500000000     0          
H1       H      0.765700000000     0.434800000000     0.523200000000     0          
C5       C      0.722000000000     0.369600000000     0.522900000000     0          
C6       C      0.771900000000     0.293700000000     0.528000000000     0          
H2       H      0.849700000000     0.304800000000     0.539500000000     0          
H3       H      0.689500000000     0.386200000000     0.521500000000     0          
C7       C      0.725100000000     0.316500000000     0.521900000000     0          
C8       C      0.765700000000     0.236200000000     0.526800000000     0          
C9       C      0.685400000000     0.276800000000     0.514900000000     0          
O7       O      0.797000000000     0.204200000000     0.531000000000     0          
C10      C      0.708800000000     0.230100000000     0.518400000000     0          
C11      C      0.633100000000     0.280900000000     0.507300000000     0          
C12      C      0.680800000000     0.184400000000     0.511300000000     0          
H4       H      0.616800000000     0.313500000000     0.506500000000     0          
C13      C      0.605200000000     0.236000000000     0.500900000000     0          
C14      C      0.629000000000     0.188200000000     0.502800000000     0          
H5       H      0.697300000000     0.151900000000     0.512500000000     0          
H6       H      0.569200000000     0.238000000000     0.495100000000     0          
C15      C      0.597360000000     0.139800000000     0.498900000000     0          
Zr1      Zr     0.408160000000     0.981710000000     0.484680000000     0          
O1       O      0.355510000000     0.045130000000     0.465770000000     0          
O2       O      0.455400000000     0.029400000000     0.437900000000     0          
O4       O      0.404590000000     0.118370000000     0.464770000000     0          
O5       O      0.050480000000     0.353720000000     0.514080000000     0          
O6       O      0.120270000000     0.401660000000     0.492210000000     0          
C1       C      0.362500000000     0.094000000000     0.465500000000     0          
C2       C      0.314400000000     0.125400000000     0.466800000000     0          
C3       C      0.267200000000     0.101500000000     0.474000000000     0          
C4       C      0.317800000000     0.178300000000     0.465500000000     0          
H1       H      0.265700000000     0.065200000000     0.476800000000     0          
C5       C      0.222000000000     0.130400000000     0.477100000000     0          
C6       C      0.271900000000     0.206300000000     0.472000000000     0          
H2       H      0.349700000000     0.195200000000     0.460500000000     0          
H3       H      0.189500000000     0.113800000000     0.478500000000     0          
C7       C      0.225100000000     0.183500000000     0.478100000000     0          
C8       C      0.265700000000     0.263800000000     0.473200000000     0          
C9       C      0.185400000000     0.223200000000     0.485100000000     0          
O7       O      0.297000000000     0.295800000000     0.469000000000     0          
C10      C      0.208800000000     0.269900000000     0.481600000000     0          
C11      C      0.133100000000     0.219100000000     0.492700000000     0          
C12      C      0.180800000000     0.315600000000     0.488700000000     0          
H4       H      0.116800000000     0.186500000000     0.493500000000     0          
C13      C      0.105200000000     0.264000000000     0.499100000000     0          
C14      C      0.129000000000     0.311800000000     0.497200000000     0          
H5       H      0.197300000000     0.348100000000     0.487500000000     0          
H6       H      0.069200000000     0.262000000000     0.504900000000     0          
C15      C      0.097360000000     0.360200000000     0.501100000000     0          


