data_TETSAP

_audit_creation_method RASPA-1.0
_audit_creation_date 2020-11-2
_audit_author_name 'Rocio Bueno-Perez'

_cell_length_a    29.764
_cell_length_b    29.764
_cell_length_c    29.764
_cell_angle_alpha 90
_cell_angle_beta  90
_cell_angle_gamma 90
_cell_volume      26367.8

_symmetry_cell_setting          triclinic
_symmetry_space_group_name_Hall 'P 1'
_symmetry_space_group_name_H-M  'P 1'
_symmetry_Int_Tables_number     1

_symmetry_equiv_pos_as_xyz 'x,y,z'

loop_
_atom_site_label
_atom_site_type_symbol
_atom_site_fract_x
_atom_site_fract_y
_atom_site_fract_z
_atom_site_charge
Zr1      Zr     0.500000000000     0.082650000000     0.000000000000     0          
Zr2      Zr     0.500000000000     0.582650000000     0.500000000000     0          
Zr3      Zr     0.500000000000     0.917350000000     0.000000000000     0          
Zr4      Zr     0.500000000000     0.417350000000     0.500000000000     0          
Zr5      Zr     0.000000000000     0.917350000000     0.500000000000     0          
Zr6      Zr     0.000000000000     0.582650000000     0.000000000000     0          
Zr7      Zr     0.000000000000     0.500000000000     0.082650000000     0          
Zr8      Zr     0.000000000000     0.000000000000     0.582650000000     0          
Zr9      Zr     0.000000000000     0.500000000000     0.917350000000     0          
Zr10     Zr     0.000000000000     0.000000000000     0.417350000000     0          
Zr11     Zr     0.500000000000     0.000000000000     0.917350000000     0          
Zr12     Zr     0.500000000000     0.500000000000     0.417350000000     0          
Zr13     Zr     0.082650000000     0.000000000000     0.500000000000     0          
Zr14     Zr     0.582650000000     0.000000000000     0.000000000000     0          
Zr15     Zr     0.582650000000     0.500000000000     0.500000000000     0          
Zr16     Zr     0.917350000000     0.000000000000     0.500000000000     0          
Zr17     Zr     0.417350000000     0.000000000000     0.000000000000     0          
Zr18     Zr     0.082650000000     0.500000000000     0.000000000000     0          
Zr19     Zr     0.917350000000     0.500000000000     0.000000000000     0          
Zr20     Zr     0.417350000000     0.500000000000     0.500000000000     0          
Zr21     Zr     0.500000000000     0.000000000000     0.082650000000     0          
Zr22     Zr     0.500000000000     0.500000000000     0.582650000000     0          
Zr23     Zr     0.000000000000     0.082650000000     0.500000000000     0          
Zr24     Zr     0.000000000000     0.417350000000     0.000000000000     0          
O25      O      0.460600000000     0.039400000000     0.039400000000     0          
O26      O      0.460600000000     0.539400000000     0.539400000000     0          
O27      O      0.539400000000     0.960600000000     0.039400000000     0          
O28      O      0.539400000000     0.460600000000     0.539400000000     0          
O29      O      0.039400000000     0.460600000000     0.039400000000     0          
O30      O      0.539400000000     0.039400000000     0.960600000000     0          
O31      O      0.539400000000     0.539400000000     0.460600000000     0          
O32      O      0.039400000000     0.039400000000     0.460600000000     0          
O33      O      0.460600000000     0.960600000000     0.960600000000     0          
O34      O      0.460600000000     0.460600000000     0.460600000000     0          
O35      O      0.039400000000     0.539400000000     0.960600000000     0          
O36      O      0.960600000000     0.539400000000     0.039400000000     0          
O37      O      0.960600000000     0.460600000000     0.960600000000     0          
O38      O      0.960600000000     0.039400000000     0.539400000000     0          
O39      O      0.039400000000     0.960600000000     0.539400000000     0          
O40      O      0.960600000000     0.960600000000     0.460600000000     0          
O41      O      0.039400000000     0.460600000000     0.960600000000     0          
O42      O      0.960600000000     0.539400000000     0.960600000000     0          
O43      O      0.960600000000     0.039400000000     0.460600000000     0          
O44      O      0.460600000000     0.039400000000     0.960600000000     0          
O45      O      0.039400000000     0.539400000000     0.039400000000     0          
O46      O      0.960600000000     0.460600000000     0.039400000000     0          
O47      O      0.460600000000     0.460600000000     0.539400000000     0          
O48      O      0.460600000000     0.539400000000     0.460600000000     0          
O49      O      0.539400000000     0.039400000000     0.039400000000     0          
O50      O      0.539400000000     0.539400000000     0.539400000000     0          
O51      O      0.539400000000     0.960600000000     0.960600000000     0          
O52      O      0.539400000000     0.460600000000     0.460600000000     0          
O53      O      0.039400000000     0.960600000000     0.460600000000     0          
O54      O      0.460600000000     0.960600000000     0.039400000000     0          
O55      O      0.039400000000     0.039400000000     0.539400000000     0          
O56      O      0.960600000000     0.960600000000     0.539400000000     0          
O57      O      0.500000000000     0.120000000000     0.936700000000     0          
O58      O      0.500000000000     0.620000000000     0.436700000000     0          
C59      C      0.500000000000     0.629700000000     0.316500000000     0          
H60      H      0.500000000000     0.599500000000     0.305900000000     0          
C61      C      0.500000000000     0.666700000000     0.287000000000     0          
H62      H      0.500000000000     0.661700000000     0.255500000000     0          
C63      C      0.500000000000     0.710600000000     0.303200000000     0          
C64      C      0.500000000000     0.717600000000     0.349500000000     0          
H65      H      0.500000000000     0.747500000000     0.360600000000     0          
C66      C      0.500000000000     0.681600000000     0.379100000000     0          
H67      H      0.500000000000     0.686200000000     0.410700000000     0          
C68      C      0.500000000000     0.750100000000     0.272800000000     0          
O69      O      0.000000000000     0.120000000000     0.436700000000     0          
O70      O      0.000000000000     0.620000000000     0.936700000000     0          
O71      O      0.500000000000     0.880000000000     0.936700000000     0          
O72      O      0.500000000000     0.380000000000     0.436700000000     0          
O73      O      0.000000000000     0.880000000000     0.436700000000     0          
O74      O      0.000000000000     0.380000000000     0.936700000000     0          
O75      O      0.500000000000     0.120000000000     0.063300000000     0          
O76      O      0.500000000000     0.620000000000     0.563300000000     0          
O77      O      0.000000000000     0.120000000000     0.563300000000     0          
O78      O      0.000000000000     0.620000000000     0.063300000000     0          
O79      O      0.500000000000     0.880000000000     0.063300000000     0          
C80      C      0.500000000000     0.870300000000     0.183500000000     0          
H81      H      0.500000000000     0.900500000000     0.194100000000     0          
C82      C      0.500000000000     0.833300000000     0.213000000000     0          
H83      H      0.500000000000     0.838300000000     0.244500000000     0          
C84      C      0.500000000000     0.789400000000     0.196800000000     0          
C85      C      0.500000000000     0.782400000000     0.150500000000     0          
H86      H      0.500000000000     0.752500000000     0.139400000000     0          
C87      C      0.500000000000     0.818400000000     0.120900000000     0          
H88      H      0.500000000000     0.813800000000     0.089300000000     0          
C89      C      0.500000000000     0.749900000000     0.227200000000     0          
O90      O      0.500000000000     0.380000000000     0.563300000000     0          
O91      O      0.000000000000     0.880000000000     0.563300000000     0          
O92      O      0.000000000000     0.380000000000     0.063300000000     0          
O93      O      0.936700000000     0.500000000000     0.120000000000     0          
C94      C      0.816500000000     0.500000000000     0.129700000000     0          
H95      H      0.805900000000     0.500000000000     0.099500000000     0          
C96      C      0.787000000000     0.500000000000     0.166700000000     0          
H97      H      0.755500000000     0.500000000000     0.161700000000     0          
C98      C      0.803200000000     0.500000000000     0.210600000000     0          
C99      C      0.849500000000     0.500000000000     0.217600000000     0          
H100     H      0.860600000000     0.500000000000     0.247500000000     0          
C101     C      0.879100000000     0.500000000000     0.181600000000     0          
H102     H      0.910700000000     0.500000000000     0.186200000000     0          
C103     C      0.772800000000     0.500000000000     0.250100000000     0          
O104     O      0.936700000000     0.000000000000     0.620000000000     0          
O105     O      0.436700000000     0.500000000000     0.620000000000     0          
O106     O      0.436700000000     0.000000000000     0.120000000000     0          
C107     C      0.316500000000     0.000000000000     0.129700000000     0          
H108     H      0.305900000000     0.000000000000     0.099500000000     0          
C109     C      0.287000000000     0.000000000000     0.166700000000     0          
H110     H      0.255500000000     0.000000000000     0.161700000000     0          
C111     C      0.303200000000     0.000000000000     0.210600000000     0          
C112     C      0.349500000000     0.000000000000     0.217600000000     0          
H113     H      0.360600000000     0.000000000000     0.247500000000     0          
C114     C      0.379100000000     0.000000000000     0.181600000000     0          
H115     H      0.410700000000     0.000000000000     0.186200000000     0          
C116     C      0.272800000000     0.000000000000     0.250100000000     0          
O117     O      0.936700000000     0.500000000000     0.880000000000     0          
O118     O      0.936700000000     0.000000000000     0.380000000000     0          
C119     C      0.816500000000     0.000000000000     0.370300000000     0          
H120     H      0.805900000000     0.000000000000     0.400500000000     0          
C121     C      0.787000000000     0.000000000000     0.333300000000     0          
H122     H      0.755500000000     0.000000000000     0.338300000000     0          
C123     C      0.803200000000     0.000000000000     0.289400000000     0          
C124     C      0.849500000000     0.000000000000     0.282400000000     0          
H125     H      0.860600000000     0.000000000000     0.252500000000     0          
C126     C      0.879100000000     0.000000000000     0.318400000000     0          
H127     H      0.910700000000     0.000000000000     0.313800000000     0          
C128     C      0.772800000000     0.000000000000     0.249900000000     0          
O129     O      0.436700000000     0.500000000000     0.380000000000     0          
O130     O      0.436700000000     0.000000000000     0.880000000000     0          
C131     C      0.316500000000     0.000000000000     0.870300000000     0          
H132     H      0.305900000000     0.000000000000     0.900500000000     0          
C133     C      0.287000000000     0.000000000000     0.833300000000     0          
H134     H      0.255500000000     0.000000000000     0.838300000000     0          
C135     C      0.303200000000     0.000000000000     0.789400000000     0          
C136     C      0.349500000000     0.000000000000     0.782400000000     0          
H137     H      0.360600000000     0.000000000000     0.752500000000     0          
C138     C      0.379100000000     0.000000000000     0.818400000000     0          
H139     H      0.410700000000     0.000000000000     0.813800000000     0          
C140     C      0.272800000000     0.000000000000     0.749900000000     0          
O141     O      0.063300000000     0.500000000000     0.120000000000     0          
O142     O      0.063300000000     0.000000000000     0.620000000000     0          
C143     C      0.183500000000     0.000000000000     0.629700000000     0          
H144     H      0.194100000000     0.000000000000     0.599500000000     0          
C145     C      0.213000000000     0.000000000000     0.666700000000     0          
H146     H      0.244500000000     0.000000000000     0.661700000000     0          
C147     C      0.196800000000     0.000000000000     0.710600000000     0          
C148     C      0.150500000000     0.000000000000     0.717600000000     0          
H149     H      0.139400000000     0.000000000000     0.747500000000     0          
C150     C      0.120900000000     0.000000000000     0.681600000000     0          
H151     H      0.089300000000     0.000000000000     0.686200000000     0          
C152     C      0.227200000000     0.000000000000     0.750100000000     0          
O153     O      0.563300000000     0.500000000000     0.620000000000     0          
O154     O      0.563300000000     0.000000000000     0.120000000000     0          
C155     C      0.683500000000     0.000000000000     0.129700000000     0          
H156     H      0.694100000000     0.000000000000     0.099500000000     0          
C157     C      0.713000000000     0.000000000000     0.166700000000     0          
H158     H      0.744500000000     0.000000000000     0.161700000000     0          
C159     C      0.696800000000     0.000000000000     0.210600000000     0          
C160     C      0.650500000000     0.000000000000     0.217600000000     0          
H161     H      0.639400000000     0.000000000000     0.247500000000     0          
C162     C      0.620900000000     0.000000000000     0.181600000000     0          
H163     H      0.589300000000     0.000000000000     0.186200000000     0          
C164     C      0.727200000000     0.000000000000     0.250100000000     0          
O165     O      0.063300000000     0.500000000000     0.880000000000     0          
O166     O      0.063300000000     0.000000000000     0.380000000000     0          
C167     C      0.183500000000     0.000000000000     0.370300000000     0          
H168     H      0.194100000000     0.000000000000     0.400500000000     0          
C169     C      0.213000000000     0.000000000000     0.333300000000     0          
H170     H      0.244500000000     0.000000000000     0.338300000000     0          
C171     C      0.196800000000     0.000000000000     0.289400000000     0          
C172     C      0.150500000000     0.000000000000     0.282400000000     0          
H173     H      0.139400000000     0.000000000000     0.252500000000     0          
C174     C      0.120900000000     0.000000000000     0.318400000000     0          
H175     H      0.089300000000     0.000000000000     0.313800000000     0          
C176     C      0.227200000000     0.000000000000     0.249900000000     0          
O177     O      0.563300000000     0.500000000000     0.380000000000     0          
C178     C      0.683500000000     0.500000000000     0.370300000000     0          
H179     H      0.694100000000     0.500000000000     0.400500000000     0          
C180     C      0.713000000000     0.500000000000     0.333300000000     0          
H181     H      0.744500000000     0.500000000000     0.338300000000     0          
C182     C      0.696800000000     0.500000000000     0.289400000000     0          
C183     C      0.650500000000     0.500000000000     0.282400000000     0          
H184     H      0.639400000000     0.500000000000     0.252500000000     0          
C185     C      0.620900000000     0.500000000000     0.318400000000     0          
H186     H      0.589300000000     0.500000000000     0.313800000000     0          
C187     C      0.727200000000     0.500000000000     0.249900000000     0          
O188     O      0.563300000000     0.000000000000     0.880000000000     0          
O189     O      0.120000000000     0.936700000000     0.500000000000     0          
O190     O      0.120000000000     0.436700000000     0.000000000000     0          
C191     C      0.129700000000     0.316500000000     0.000000000000     0          
H192     H      0.099500000000     0.305900000000     0.000000000000     0          
C193     C      0.166700000000     0.287000000000     0.000000000000     0          
H194     H      0.161700000000     0.255500000000     0.000000000000     0          
C195     C      0.210600000000     0.303200000000     0.000000000000     0          
C196     C      0.217600000000     0.349500000000     0.000000000000     0          
H197     H      0.247500000000     0.360600000000     0.000000000000     0          
C198     C      0.181600000000     0.379100000000     0.000000000000     0          
H199     H      0.186200000000     0.410700000000     0.000000000000     0          
C200     C      0.250100000000     0.272800000000     0.000000000000     0          
O201     O      0.620000000000     0.936700000000     0.000000000000     0          
C202     C      0.629700000000     0.816500000000     0.000000000000     0          
H203     H      0.599500000000     0.805900000000     0.000000000000     0          
C204     C      0.666700000000     0.787000000000     0.000000000000     0          
H205     H      0.661700000000     0.755500000000     0.000000000000     0          
C206     C      0.710600000000     0.803200000000     0.000000000000     0          
C207     C      0.717600000000     0.849500000000     0.000000000000     0          
H208     H      0.747500000000     0.860600000000     0.000000000000     0          
C209     C      0.681600000000     0.879100000000     0.000000000000     0          
H210     H      0.686200000000     0.910700000000     0.000000000000     0          
C211     C      0.750100000000     0.772800000000     0.000000000000     0          
O212     O      0.620000000000     0.436700000000     0.500000000000     0          
O213     O      0.880000000000     0.936700000000     0.500000000000     0          
C214     C      0.870300000000     0.816500000000     0.500000000000     0          
H215     H      0.900500000000     0.805900000000     0.500000000000     0          
C216     C      0.833300000000     0.787000000000     0.500000000000     0          
H217     H      0.838300000000     0.755500000000     0.500000000000     0          
C218     C      0.789400000000     0.803200000000     0.500000000000     0          
C219     C      0.782400000000     0.849500000000     0.500000000000     0          
H220     H      0.752500000000     0.860600000000     0.500000000000     0          
C221     C      0.818400000000     0.879100000000     0.500000000000     0          
H222     H      0.813800000000     0.910700000000     0.500000000000     0          
C223     C      0.749900000000     0.772800000000     0.500000000000     0          
O224     O      0.880000000000     0.436700000000     0.000000000000     0          
C225     C      0.870300000000     0.316500000000     0.000000000000     0          
H226     H      0.900500000000     0.305900000000     0.000000000000     0          
C227     C      0.833300000000     0.287000000000     0.000000000000     0          
H228     H      0.838300000000     0.255500000000     0.000000000000     0          
C229     C      0.789400000000     0.303200000000     0.000000000000     0          
C230     C      0.782400000000     0.349500000000     0.000000000000     0          
H231     H      0.752500000000     0.360600000000     0.000000000000     0          
C232     C      0.818400000000     0.379100000000     0.000000000000     0          
H233     H      0.813800000000     0.410700000000     0.000000000000     0          
C234     C      0.749900000000     0.272800000000     0.000000000000     0          
O235     O      0.380000000000     0.936700000000     0.000000000000     0          
C236     C      0.370300000000     0.816500000000     0.000000000000     0          
H237     H      0.400500000000     0.805900000000     0.000000000000     0          
C238     C      0.333300000000     0.787000000000     0.000000000000     0          
H239     H      0.338300000000     0.755500000000     0.000000000000     0          
C240     C      0.289400000000     0.803200000000     0.000000000000     0          
C241     C      0.282400000000     0.849500000000     0.000000000000     0          
H242     H      0.252500000000     0.860600000000     0.000000000000     0          
C243     C      0.318400000000     0.879100000000     0.000000000000     0          
H244     H      0.313800000000     0.910700000000     0.000000000000     0          
C245     C      0.249900000000     0.772800000000     0.000000000000     0          
O246     O      0.380000000000     0.436700000000     0.500000000000     0          
C247     C      0.370300000000     0.316500000000     0.500000000000     0          
H248     H      0.400500000000     0.305900000000     0.500000000000     0          
C249     C      0.333300000000     0.287000000000     0.500000000000     0          
H250     H      0.338300000000     0.255500000000     0.500000000000     0          
C251     C      0.289400000000     0.303200000000     0.500000000000     0          
C252     C      0.282400000000     0.349500000000     0.500000000000     0          
H253     H      0.252500000000     0.360600000000     0.500000000000     0          
C254     C      0.318400000000     0.379100000000     0.500000000000     0          
H255     H      0.313800000000     0.410700000000     0.500000000000     0          
C256     C      0.249900000000     0.272800000000     0.500000000000     0          
O257     O      0.120000000000     0.063300000000     0.500000000000     0          
C258     C      0.129700000000     0.183500000000     0.500000000000     0          
H259     H      0.099500000000     0.194100000000     0.500000000000     0          
C260     C      0.166700000000     0.213000000000     0.500000000000     0          
H261     H      0.161700000000     0.244500000000     0.500000000000     0          
C262     C      0.210600000000     0.196800000000     0.500000000000     0          
C263     C      0.217600000000     0.150500000000     0.500000000000     0          
H264     H      0.247500000000     0.139400000000     0.500000000000     0          
C265     C      0.181600000000     0.120900000000     0.500000000000     0          
H266     H      0.186200000000     0.089300000000     0.500000000000     0          
C267     C      0.250100000000     0.227200000000     0.500000000000     0          
O268     O      0.120000000000     0.563300000000     0.000000000000     0          
C269     C      0.129700000000     0.683500000000     0.000000000000     0          
H270     H      0.099500000000     0.694100000000     0.000000000000     0          
C271     C      0.166700000000     0.713000000000     0.000000000000     0          
H272     H      0.161700000000     0.744500000000     0.000000000000     0          
C273     C      0.210600000000     0.696800000000     0.000000000000     0          
C274     C      0.217600000000     0.650500000000     0.000000000000     0          
H275     H      0.247500000000     0.639400000000     0.000000000000     0          
C276     C      0.181600000000     0.620900000000     0.000000000000     0          
H277     H      0.186200000000     0.589300000000     0.000000000000     0          
C278     C      0.250100000000     0.727200000000     0.000000000000     0          
O279     O      0.620000000000     0.063300000000     0.000000000000     0          
C280     C      0.629700000000     0.183500000000     0.000000000000     0          
H281     H      0.599500000000     0.194100000000     0.000000000000     0          
C282     C      0.666700000000     0.213000000000     0.000000000000     0          
H283     H      0.661700000000     0.244500000000     0.000000000000     0          
C284     C      0.710600000000     0.196800000000     0.000000000000     0          
C285     C      0.717600000000     0.150500000000     0.000000000000     0          
H286     H      0.747500000000     0.139400000000     0.000000000000     0          
C287     C      0.681600000000     0.120900000000     0.000000000000     0          
H288     H      0.686200000000     0.089300000000     0.000000000000     0          
C289     C      0.750100000000     0.227200000000     0.000000000000     0          
O290     O      0.620000000000     0.563300000000     0.500000000000     0          
C291     C      0.629700000000     0.683500000000     0.500000000000     0          
H292     H      0.599500000000     0.694100000000     0.500000000000     0          
C293     C      0.666700000000     0.713000000000     0.500000000000     0          
H294     H      0.661700000000     0.744500000000     0.500000000000     0          
C295     C      0.710600000000     0.696800000000     0.500000000000     0          
C296     C      0.717600000000     0.650500000000     0.500000000000     0          
H297     H      0.747500000000     0.639400000000     0.500000000000     0          
C298     C      0.681600000000     0.620900000000     0.500000000000     0          
H299     H      0.686200000000     0.589300000000     0.500000000000     0          
C300     C      0.750100000000     0.727200000000     0.500000000000     0          
O301     O      0.880000000000     0.063300000000     0.500000000000     0          
O302     O      0.880000000000     0.563300000000     0.000000000000     0          
C303     C      0.870300000000     0.683500000000     0.000000000000     0          
H304     H      0.900500000000     0.694100000000     0.000000000000     0          
C305     C      0.833300000000     0.713000000000     0.000000000000     0          
H306     H      0.838300000000     0.744500000000     0.000000000000     0          
C307     C      0.789400000000     0.696800000000     0.000000000000     0          
C308     C      0.782400000000     0.650500000000     0.000000000000     0          
H309     H      0.752500000000     0.639400000000     0.000000000000     0          
C310     C      0.818400000000     0.620900000000     0.000000000000     0          
H311     H      0.813800000000     0.589300000000     0.000000000000     0          
C312     C      0.749900000000     0.727200000000     0.000000000000     0          
O313     O      0.380000000000     0.063300000000     0.000000000000     0          
C314     C      0.370300000000     0.183500000000     0.000000000000     0          
H315     H      0.400500000000     0.194100000000     0.000000000000     0          
C316     C      0.333300000000     0.213000000000     0.000000000000     0          
H317     H      0.338300000000     0.244500000000     0.000000000000     0          
C318     C      0.289400000000     0.196800000000     0.000000000000     0          
C319     C      0.282400000000     0.150500000000     0.000000000000     0          
H320     H      0.252500000000     0.139400000000     0.000000000000     0          
C321     C      0.318400000000     0.120900000000     0.000000000000     0          
H322     H      0.313800000000     0.089300000000     0.000000000000     0          
C323     C      0.249900000000     0.227200000000     0.000000000000     0          
O324     O      0.380000000000     0.563300000000     0.500000000000     0          
O325     O      0.120000000000     0.500000000000     0.063300000000     0          
C326     C      0.129700000000     0.500000000000     0.183500000000     0          
H327     H      0.099500000000     0.500000000000     0.194100000000     0          
C328     C      0.166700000000     0.500000000000     0.213000000000     0          
H329     H      0.161700000000     0.500000000000     0.244500000000     0          
C330     C      0.210600000000     0.500000000000     0.196800000000     0          
C331     C      0.217600000000     0.500000000000     0.150500000000     0          
H332     H      0.247500000000     0.500000000000     0.139400000000     0          
C333     C      0.181600000000     0.500000000000     0.120900000000     0          
H334     H      0.186200000000     0.500000000000     0.089300000000     0          
C335     C      0.250100000000     0.500000000000     0.227200000000     0          
O336     O      0.120000000000     0.000000000000     0.563300000000     0          
O337     O      0.620000000000     0.500000000000     0.563300000000     0          
C338     C      0.629700000000     0.500000000000     0.683500000000     0          
H339     H      0.599500000000     0.500000000000     0.694100000000     0          
C340     C      0.666700000000     0.500000000000     0.713000000000     0          
H341     H      0.661700000000     0.500000000000     0.744500000000     0          
C342     C      0.710600000000     0.500000000000     0.696800000000     0          
C343     C      0.717600000000     0.500000000000     0.650500000000     0          
H344     H      0.747500000000     0.500000000000     0.639400000000     0          
C345     C      0.681600000000     0.500000000000     0.620900000000     0          
H346     H      0.686200000000     0.500000000000     0.589300000000     0          
C347     C      0.750100000000     0.500000000000     0.727200000000     0          
O348     O      0.620000000000     0.000000000000     0.063300000000     0          
O349     O      0.880000000000     0.500000000000     0.063300000000     0          
O350     O      0.880000000000     0.000000000000     0.563300000000     0          
C351     C      0.870300000000     0.000000000000     0.683500000000     0          
H352     H      0.900500000000     0.000000000000     0.694100000000     0          
C353     C      0.833300000000     0.000000000000     0.713000000000     0          
H354     H      0.838300000000     0.000000000000     0.744500000000     0          
C355     C      0.789400000000     0.000000000000     0.696800000000     0          
C356     C      0.782400000000     0.000000000000     0.650500000000     0          
H357     H      0.752500000000     0.000000000000     0.639400000000     0          
C358     C      0.818400000000     0.000000000000     0.620900000000     0          
H359     H      0.813800000000     0.000000000000     0.589300000000     0          
C360     C      0.749900000000     0.000000000000     0.727200000000     0          
O361     O      0.380000000000     0.500000000000     0.563300000000     0          
C362     C      0.370300000000     0.500000000000     0.683500000000     0          
H363     H      0.400500000000     0.500000000000     0.694100000000     0          
C364     C      0.333300000000     0.500000000000     0.713000000000     0          
H365     H      0.338300000000     0.500000000000     0.744500000000     0          
C366     C      0.289400000000     0.500000000000     0.696800000000     0          
C367     C      0.282400000000     0.500000000000     0.650500000000     0          
H368     H      0.252500000000     0.500000000000     0.639400000000     0          
C369     C      0.318400000000     0.500000000000     0.620900000000     0          
H370     H      0.313800000000     0.500000000000     0.589300000000     0          
C371     C      0.249900000000     0.500000000000     0.727200000000     0          
O372     O      0.380000000000     0.000000000000     0.063300000000     0          
O373     O      0.120000000000     0.500000000000     0.936700000000     0          
C374     C      0.129700000000     0.500000000000     0.816500000000     0          
H375     H      0.099500000000     0.500000000000     0.805900000000     0          
C376     C      0.166700000000     0.500000000000     0.787000000000     0          
H377     H      0.161700000000     0.500000000000     0.755500000000     0          
C378     C      0.210600000000     0.500000000000     0.803200000000     0          
C379     C      0.217600000000     0.500000000000     0.849500000000     0          
H380     H      0.247500000000     0.500000000000     0.860600000000     0          
C381     C      0.181600000000     0.500000000000     0.879100000000     0          
H382     H      0.186200000000     0.500000000000     0.910700000000     0          
C383     C      0.250100000000     0.500000000000     0.772800000000     0          
O384     O      0.120000000000     0.000000000000     0.436700000000     0          
O385     O      0.620000000000     0.500000000000     0.436700000000     0          
O386     O      0.620000000000     0.000000000000     0.936700000000     0          
C387     C      0.629700000000     0.000000000000     0.816500000000     0          
H388     H      0.599500000000     0.000000000000     0.805900000000     0          
C389     C      0.666700000000     0.000000000000     0.787000000000     0          
H390     H      0.661700000000     0.000000000000     0.755500000000     0          
C391     C      0.710600000000     0.000000000000     0.803200000000     0          
C392     C      0.717600000000     0.000000000000     0.849500000000     0          
H393     H      0.747500000000     0.000000000000     0.860600000000     0          
C394     C      0.681600000000     0.000000000000     0.879100000000     0          
H395     H      0.686200000000     0.000000000000     0.910700000000     0          
C396     C      0.750100000000     0.000000000000     0.772800000000     0          
O397     O      0.880000000000     0.500000000000     0.936700000000     0          
C398     C      0.870300000000     0.500000000000     0.816500000000     0          
H399     H      0.900500000000     0.500000000000     0.805900000000     0          
C400     C      0.833300000000     0.500000000000     0.787000000000     0          
H401     H      0.838300000000     0.500000000000     0.755500000000     0          
C402     C      0.789400000000     0.500000000000     0.803200000000     0          
C403     C      0.782400000000     0.500000000000     0.849500000000     0          
H404     H      0.752500000000     0.500000000000     0.860600000000     0          
C405     C      0.818400000000     0.500000000000     0.879100000000     0          
H406     H      0.813800000000     0.500000000000     0.910700000000     0          
C407     C      0.749900000000     0.500000000000     0.772800000000     0          
O408     O      0.880000000000     0.000000000000     0.436700000000     0          
O409     O      0.380000000000     0.500000000000     0.436700000000     0          
C410     C      0.370300000000     0.500000000000     0.316500000000     0          
H411     H      0.400500000000     0.500000000000     0.305900000000     0          
C412     C      0.333300000000     0.500000000000     0.287000000000     0          
H413     H      0.338300000000     0.500000000000     0.255500000000     0          
C414     C      0.289400000000     0.500000000000     0.303200000000     0          
C415     C      0.282400000000     0.500000000000     0.349500000000     0          
H416     H      0.252500000000     0.500000000000     0.360600000000     0          
C417     C      0.318400000000     0.500000000000     0.379100000000     0          
H418     H      0.313800000000     0.500000000000     0.410700000000     0          
C419     C      0.249900000000     0.500000000000     0.272800000000     0          
O420     O      0.380000000000     0.000000000000     0.936700000000     0          
O421     O      0.500000000000     0.936700000000     0.880000000000     0          
C422     C      0.500000000000     0.816500000000     0.870300000000     0          
H423     H      0.500000000000     0.805900000000     0.900500000000     0          
C424     C      0.500000000000     0.787000000000     0.833300000000     0          
H425     H      0.500000000000     0.755500000000     0.838300000000     0          
C426     C      0.500000000000     0.803200000000     0.789400000000     0          
C427     C      0.500000000000     0.849500000000     0.782400000000     0          
H428     H      0.500000000000     0.860600000000     0.752500000000     0          
C429     C      0.500000000000     0.879100000000     0.818400000000     0          
H430     H      0.500000000000     0.910700000000     0.813800000000     0          
C431     C      0.500000000000     0.772800000000     0.749900000000     0          
O432     O      0.500000000000     0.436700000000     0.380000000000     0          
C433     C      0.500000000000     0.316500000000     0.370300000000     0          
H434     H      0.500000000000     0.305900000000     0.400500000000     0          
C435     C      0.500000000000     0.287000000000     0.333300000000     0          
H436     H      0.500000000000     0.255500000000     0.338300000000     0          
C437     C      0.500000000000     0.303200000000     0.289400000000     0          
C438     C      0.500000000000     0.349500000000     0.282400000000     0          
H439     H      0.500000000000     0.360600000000     0.252500000000     0          
C440     C      0.500000000000     0.379100000000     0.318400000000     0          
H441     H      0.500000000000     0.410700000000     0.313800000000     0          
C442     C      0.500000000000     0.272800000000     0.249900000000     0          
O443     O      0.000000000000     0.936700000000     0.380000000000     0          
C444     C      0.000000000000     0.816500000000     0.370300000000     0          
H445     H      0.000000000000     0.805900000000     0.400500000000     0          
C446     C      0.000000000000     0.787000000000     0.333300000000     0          
H447     H      0.000000000000     0.755500000000     0.338300000000     0          
C448     C      0.000000000000     0.803200000000     0.289400000000     0          
C449     C      0.000000000000     0.849500000000     0.282400000000     0          
H450     H      0.000000000000     0.860600000000     0.252500000000     0          
C451     C      0.000000000000     0.879100000000     0.318400000000     0          
H452     H      0.000000000000     0.910700000000     0.313800000000     0          
C453     C      0.000000000000     0.772800000000     0.249900000000     0          
O454     O      0.000000000000     0.436700000000     0.880000000000     0          
C455     C      0.000000000000     0.316500000000     0.870300000000     0          
H456     H      0.000000000000     0.305900000000     0.900500000000     0          
C457     C      0.000000000000     0.287000000000     0.833300000000     0          
H458     H      0.000000000000     0.255500000000     0.838300000000     0          
C459     C      0.000000000000     0.303200000000     0.789400000000     0          
C460     C      0.000000000000     0.349500000000     0.782400000000     0          
H461     H      0.000000000000     0.360600000000     0.752500000000     0          
C462     C      0.000000000000     0.379100000000     0.818400000000     0          
H463     H      0.000000000000     0.410700000000     0.813800000000     0          
C464     C      0.000000000000     0.272800000000     0.749900000000     0          
O465     O      0.500000000000     0.936700000000     0.120000000000     0          
O466     O      0.500000000000     0.436700000000     0.620000000000     0          
C467     C      0.500000000000     0.316500000000     0.629700000000     0          
H468     H      0.500000000000     0.305900000000     0.599500000000     0          
C469     C      0.500000000000     0.287000000000     0.666700000000     0          
H470     H      0.500000000000     0.255500000000     0.661700000000     0          
C471     C      0.500000000000     0.303200000000     0.710600000000     0          
C472     C      0.500000000000     0.349500000000     0.717600000000     0          
H473     H      0.500000000000     0.360600000000     0.747500000000     0          
C474     C      0.500000000000     0.379100000000     0.681600000000     0          
H475     H      0.500000000000     0.410700000000     0.686200000000     0          
C476     C      0.500000000000     0.272800000000     0.750100000000     0          
O477     O      0.000000000000     0.936700000000     0.620000000000     0          
C478     C      0.000000000000     0.816500000000     0.629700000000     0          
H479     H      0.000000000000     0.805900000000     0.599500000000     0          
C480     C      0.000000000000     0.787000000000     0.666700000000     0          
H481     H      0.000000000000     0.755500000000     0.661700000000     0          
C482     C      0.000000000000     0.803200000000     0.710600000000     0          
C483     C      0.000000000000     0.849500000000     0.717600000000     0          
H484     H      0.000000000000     0.860600000000     0.747500000000     0          
C485     C      0.000000000000     0.879100000000     0.681600000000     0          
H486     H      0.000000000000     0.910700000000     0.686200000000     0          
C487     C      0.000000000000     0.772800000000     0.750100000000     0          
O488     O      0.000000000000     0.436700000000     0.120000000000     0          
C489     C      0.000000000000     0.316500000000     0.129700000000     0          
H490     H      0.000000000000     0.305900000000     0.099500000000     0          
C491     C      0.000000000000     0.287000000000     0.166700000000     0          
H492     H      0.000000000000     0.255500000000     0.161700000000     0          
C493     C      0.000000000000     0.303200000000     0.210600000000     0          
C494     C      0.000000000000     0.349500000000     0.217600000000     0          
H495     H      0.000000000000     0.360600000000     0.247500000000     0          
C496     C      0.000000000000     0.379100000000     0.181600000000     0          
H497     H      0.000000000000     0.410700000000     0.186200000000     0          
C498     C      0.000000000000     0.272800000000     0.250100000000     0          
O499     O      0.500000000000     0.063300000000     0.880000000000     0          
C500     C      0.500000000000     0.183500000000     0.870300000000     0          
H501     H      0.500000000000     0.194100000000     0.900500000000     0          
C502     C      0.500000000000     0.213000000000     0.833300000000     0          
H503     H      0.500000000000     0.244500000000     0.838300000000     0          
C504     C      0.500000000000     0.196800000000     0.789400000000     0          
C505     C      0.500000000000     0.150500000000     0.782400000000     0          
H506     H      0.500000000000     0.139400000000     0.752500000000     0          
C507     C      0.500000000000     0.120900000000     0.818400000000     0          
H508     H      0.500000000000     0.089300000000     0.813800000000     0          
C509     C      0.500000000000     0.227200000000     0.749900000000     0          
O510     O      0.500000000000     0.563300000000     0.380000000000     0          
O511     O      0.000000000000     0.063300000000     0.380000000000     0          
C512     C      0.000000000000     0.183500000000     0.370300000000     0          
H513     H      0.000000000000     0.194100000000     0.400500000000     0          
C514     C      0.000000000000     0.213000000000     0.333300000000     0          
H515     H      0.000000000000     0.244500000000     0.338300000000     0          
C516     C      0.000000000000     0.196800000000     0.289400000000     0          
C517     C      0.000000000000     0.150500000000     0.282400000000     0          
H518     H      0.000000000000     0.139400000000     0.252500000000     0          
C519     C      0.000000000000     0.120900000000     0.318400000000     0          
H520     H      0.000000000000     0.089300000000     0.313800000000     0          
C521     C      0.000000000000     0.227200000000     0.249900000000     0          
O522     O      0.000000000000     0.563300000000     0.880000000000     0          
C523     C      0.000000000000     0.683500000000     0.870300000000     0          
H524     H      0.000000000000     0.694100000000     0.900500000000     0          
C525     C      0.000000000000     0.713000000000     0.833300000000     0          
H526     H      0.000000000000     0.744500000000     0.838300000000     0          
C527     C      0.000000000000     0.696800000000     0.789400000000     0          
C528     C      0.000000000000     0.650500000000     0.782400000000     0          
H529     H      0.000000000000     0.639400000000     0.752500000000     0          
C530     C      0.000000000000     0.620900000000     0.818400000000     0          
H531     H      0.000000000000     0.589300000000     0.813800000000     0          
C532     C      0.000000000000     0.727200000000     0.749900000000     0          
O533     O      0.500000000000     0.063300000000     0.120000000000     0          
C534     C      0.500000000000     0.183500000000     0.129700000000     0          
H535     H      0.500000000000     0.194100000000     0.099500000000     0          
C536     C      0.500000000000     0.213000000000     0.166700000000     0          
H537     H      0.500000000000     0.244500000000     0.161700000000     0          
C538     C      0.500000000000     0.196800000000     0.210600000000     0          
C539     C      0.500000000000     0.150500000000     0.217600000000     0          
H540     H      0.500000000000     0.139400000000     0.247500000000     0          
C541     C      0.500000000000     0.120900000000     0.181600000000     0          
H542     H      0.500000000000     0.089300000000     0.186200000000     0          
C543     C      0.500000000000     0.227200000000     0.250100000000     0          
O544     O      0.500000000000     0.563300000000     0.620000000000     0          
C545     C      0.500000000000     0.683500000000     0.629700000000     0          
H546     H      0.500000000000     0.694100000000     0.599500000000     0          
C547     C      0.500000000000     0.713000000000     0.666700000000     0          
H548     H      0.500000000000     0.744500000000     0.661700000000     0          
C549     C      0.500000000000     0.696800000000     0.710600000000     0          
C550     C      0.500000000000     0.650500000000     0.717600000000     0          
H551     H      0.500000000000     0.639400000000     0.747500000000     0          
C552     C      0.500000000000     0.620900000000     0.681600000000     0          
H553     H      0.500000000000     0.589300000000     0.686200000000     0          
C554     C      0.500000000000     0.727200000000     0.750100000000     0          
O555     O      0.000000000000     0.063300000000     0.620000000000     0          
C556     C      0.000000000000     0.183500000000     0.629700000000     0          
H557     H      0.000000000000     0.194100000000     0.599500000000     0          
C558     C      0.000000000000     0.213000000000     0.666700000000     0          
H559     H      0.000000000000     0.244500000000     0.661700000000     0          
C560     C      0.000000000000     0.196800000000     0.710600000000     0          
C561     C      0.000000000000     0.150500000000     0.717600000000     0          
H562     H      0.000000000000     0.139400000000     0.747500000000     0          
C563     C      0.000000000000     0.120900000000     0.681600000000     0          
H564     H      0.000000000000     0.089300000000     0.686200000000     0          
C565     C      0.000000000000     0.227200000000     0.750100000000     0          
O566     O      0.000000000000     0.563300000000     0.120000000000     0          
C567     C      0.000000000000     0.683500000000     0.129700000000     0          
H568     H      0.000000000000     0.694100000000     0.099500000000     0          
C569     C      0.000000000000     0.713000000000     0.166700000000     0          
H570     H      0.000000000000     0.744500000000     0.161700000000     0          
C571     C      0.000000000000     0.696800000000     0.210600000000     0          
C572     C      0.000000000000     0.650500000000     0.217600000000     0          
H573     H      0.000000000000     0.639400000000     0.247500000000     0          
C574     C      0.000000000000     0.620900000000     0.181600000000     0          
H575     H      0.000000000000     0.589300000000     0.186200000000     0          
C576     C      0.000000000000     0.727200000000     0.250100000000     0          
O577     O      0.936700000000     0.120000000000     0.500000000000     0          
C578     C      0.816500000000     0.129700000000     0.500000000000     0          
H579     H      0.805900000000     0.099500000000     0.500000000000     0          
C580     C      0.787000000000     0.166700000000     0.500000000000     0          
H581     H      0.755500000000     0.161700000000     0.500000000000     0          
C582     C      0.803200000000     0.210600000000     0.500000000000     0          
C583     C      0.849500000000     0.217600000000     0.500000000000     0          
H584     H      0.860600000000     0.247500000000     0.500000000000     0          
C585     C      0.879100000000     0.181600000000     0.500000000000     0          
H586     H      0.910700000000     0.186200000000     0.500000000000     0          
C587     C      0.772800000000     0.250100000000     0.500000000000     0          
O588     O      0.936700000000     0.620000000000     0.000000000000     0          
O589     O      0.436700000000     0.120000000000     0.000000000000     0          
O590     O      0.436700000000     0.620000000000     0.500000000000     0          
C591     C      0.316500000000     0.629700000000     0.500000000000     0          
H592     H      0.305900000000     0.599500000000     0.500000000000     0          
C593     C      0.287000000000     0.666700000000     0.500000000000     0          
H594     H      0.255500000000     0.661700000000     0.500000000000     0          
C595     C      0.303200000000     0.710600000000     0.500000000000     0          
C596     C      0.349500000000     0.717600000000     0.500000000000     0          
H597     H      0.360600000000     0.747500000000     0.500000000000     0          
C598     C      0.379100000000     0.681600000000     0.500000000000     0          
H599     H      0.410700000000     0.686200000000     0.500000000000     0          
C600     C      0.272800000000     0.750100000000     0.500000000000     0          
O601     O      0.936700000000     0.880000000000     0.500000000000     0          
O602     O      0.936700000000     0.380000000000     0.000000000000     0          
O603     O      0.436700000000     0.880000000000     0.000000000000     0          
O604     O      0.436700000000     0.380000000000     0.500000000000     0          
O605     O      0.063300000000     0.120000000000     0.500000000000     0          
O606     O      0.063300000000     0.620000000000     0.000000000000     0          
O607     O      0.563300000000     0.120000000000     0.000000000000     0          
O608     O      0.563300000000     0.620000000000     0.500000000000     0          
O609     O      0.063300000000     0.880000000000     0.500000000000     0          
C610     C      0.183500000000     0.870300000000     0.500000000000     0          
H611     H      0.194100000000     0.900500000000     0.500000000000     0          
C612     C      0.213000000000     0.833300000000     0.500000000000     0          
H613     H      0.244500000000     0.838300000000     0.500000000000     0          
C614     C      0.196800000000     0.789400000000     0.500000000000     0          
C615     C      0.150500000000     0.782400000000     0.500000000000     0          
H616     H      0.139400000000     0.752500000000     0.500000000000     0          
C617     C      0.120900000000     0.818400000000     0.500000000000     0          
H618     H      0.089300000000     0.813800000000     0.500000000000     0          
C619     C      0.227200000000     0.749900000000     0.500000000000     0          
O620     O      0.063300000000     0.380000000000     0.000000000000     0          
O621     O      0.563300000000     0.880000000000     0.000000000000     0          
O622     O      0.563300000000     0.380000000000     0.500000000000     0          
C623     C      0.683500000000     0.370300000000     0.500000000000     0          
H624     H      0.694100000000     0.400500000000     0.500000000000     0          
C625     C      0.713000000000     0.333300000000     0.500000000000     0          
H626     H      0.744500000000     0.338300000000     0.500000000000     0          
C627     C      0.696800000000     0.289400000000     0.500000000000     0          
C628     C      0.650500000000     0.282400000000     0.500000000000     0          
H629     H      0.639400000000     0.252500000000     0.500000000000     0          
C630     C      0.620900000000     0.318400000000     0.500000000000     0          
H631     H      0.589300000000     0.313800000000     0.500000000000     0          
C632     C      0.727200000000     0.249900000000     0.500000000000     0          
C633     C      0.500000000000     0.103800000000     0.896200000000     0          
C634     C      0.500000000000     0.138900000000     0.861100000000     0          
C635     C      0.500000000000     0.603800000000     0.396200000000     0          
C636     C      0.500000000000     0.638900000000     0.361100000000     0          
C637     C      0.000000000000     0.103800000000     0.396200000000     0          
C638     C      0.000000000000     0.138900000000     0.361100000000     0          
C639     C      0.000000000000     0.603800000000     0.896200000000     0          
C640     C      0.000000000000     0.638900000000     0.861100000000     0          
C641     C      0.500000000000     0.896200000000     0.896200000000     0          
C642     C      0.500000000000     0.861100000000     0.861100000000     0          
C643     C      0.500000000000     0.396200000000     0.396200000000     0          
C644     C      0.500000000000     0.361100000000     0.361100000000     0          
C645     C      0.000000000000     0.896200000000     0.396200000000     0          
C646     C      0.000000000000     0.861100000000     0.361100000000     0          
C647     C      0.000000000000     0.396200000000     0.896200000000     0          
C648     C      0.000000000000     0.361100000000     0.861100000000     0          
C649     C      0.500000000000     0.103800000000     0.103800000000     0          
C650     C      0.500000000000     0.138900000000     0.138900000000     0          
C651     C      0.500000000000     0.603800000000     0.603800000000     0          
C652     C      0.500000000000     0.638900000000     0.638900000000     0          
C653     C      0.000000000000     0.103800000000     0.603800000000     0          
C654     C      0.000000000000     0.138900000000     0.638900000000     0          
C655     C      0.000000000000     0.603800000000     0.103800000000     0          
C656     C      0.000000000000     0.638900000000     0.138900000000     0          
C657     C      0.500000000000     0.896200000000     0.103800000000     0          
C658     C      0.500000000000     0.861100000000     0.138900000000     0          
C659     C      0.500000000000     0.396200000000     0.603800000000     0          
C660     C      0.500000000000     0.361100000000     0.638900000000     0          
C661     C      0.000000000000     0.896200000000     0.603800000000     0          
C662     C      0.000000000000     0.861100000000     0.638900000000     0          
C663     C      0.000000000000     0.396200000000     0.103800000000     0          
C664     C      0.000000000000     0.361100000000     0.138900000000     0          
C665     C      0.896200000000     0.500000000000     0.103800000000     0          
C666     C      0.861100000000     0.500000000000     0.138900000000     0          
C667     C      0.896200000000     0.000000000000     0.603800000000     0          
C668     C      0.861100000000     0.000000000000     0.638900000000     0          
C669     C      0.396200000000     0.500000000000     0.603800000000     0          
C670     C      0.361100000000     0.500000000000     0.638900000000     0          
C671     C      0.396200000000     0.000000000000     0.103800000000     0          
C672     C      0.361100000000     0.000000000000     0.138900000000     0          
C673     C      0.896200000000     0.500000000000     0.896200000000     0          
C674     C      0.861100000000     0.500000000000     0.861100000000     0          
C675     C      0.896200000000     0.000000000000     0.396200000000     0          
C676     C      0.861100000000     0.000000000000     0.361100000000     0          
C677     C      0.396200000000     0.500000000000     0.396200000000     0          
C678     C      0.361100000000     0.500000000000     0.361100000000     0          
C679     C      0.396200000000     0.000000000000     0.896200000000     0          
C680     C      0.361100000000     0.000000000000     0.861100000000     0          
C681     C      0.103800000000     0.500000000000     0.103800000000     0          
C682     C      0.138900000000     0.500000000000     0.138900000000     0          
C683     C      0.103800000000     0.000000000000     0.603800000000     0          
C684     C      0.138900000000     0.000000000000     0.638900000000     0          
C685     C      0.603800000000     0.500000000000     0.603800000000     0          
C686     C      0.638900000000     0.500000000000     0.638900000000     0          
C687     C      0.603800000000     0.000000000000     0.103800000000     0          
C688     C      0.638900000000     0.000000000000     0.138900000000     0          
C689     C      0.103800000000     0.500000000000     0.896200000000     0          
C690     C      0.138900000000     0.500000000000     0.861100000000     0          
C691     C      0.103800000000     0.000000000000     0.396200000000     0          
C692     C      0.138900000000     0.000000000000     0.361100000000     0          
C693     C      0.603800000000     0.500000000000     0.396200000000     0          
C694     C      0.638900000000     0.500000000000     0.361100000000     0          
C695     C      0.603800000000     0.000000000000     0.896200000000     0          
C696     C      0.638900000000     0.000000000000     0.861100000000     0          
C697     C      0.103800000000     0.896200000000     0.500000000000     0          
C698     C      0.138900000000     0.861100000000     0.500000000000     0          
C699     C      0.103800000000     0.396200000000     0.000000000000     0          
C700     C      0.138900000000     0.361100000000     0.000000000000     0          
C701     C      0.603800000000     0.896200000000     0.000000000000     0          
C702     C      0.638900000000     0.861100000000     0.000000000000     0          
C703     C      0.603800000000     0.396200000000     0.500000000000     0          
C704     C      0.638900000000     0.361100000000     0.500000000000     0          
C705     C      0.896200000000     0.896200000000     0.500000000000     0          
C706     C      0.861100000000     0.861100000000     0.500000000000     0          
C707     C      0.896200000000     0.396200000000     0.000000000000     0          
C708     C      0.861100000000     0.361100000000     0.000000000000     0          
C709     C      0.396200000000     0.896200000000     0.000000000000     0          
C710     C      0.361100000000     0.861100000000     0.000000000000     0          
C711     C      0.396200000000     0.396200000000     0.500000000000     0          
C712     C      0.361100000000     0.361100000000     0.500000000000     0          
C713     C      0.103800000000     0.103800000000     0.500000000000     0          
C714     C      0.138900000000     0.138900000000     0.500000000000     0          
C715     C      0.103800000000     0.603800000000     0.000000000000     0          
C716     C      0.138900000000     0.638900000000     0.000000000000     0          
C717     C      0.603800000000     0.103800000000     0.000000000000     0          
C718     C      0.638900000000     0.138900000000     0.000000000000     0          
C719     C      0.603800000000     0.603800000000     0.500000000000     0          
C720     C      0.638900000000     0.638900000000     0.500000000000     0          
C721     C      0.896200000000     0.103800000000     0.500000000000     0          
C722     C      0.861100000000     0.138900000000     0.500000000000     0          
C723     C      0.896200000000     0.603800000000     0.000000000000     0          
C724     C      0.861100000000     0.638900000000     0.000000000000     0          
C725     C      0.396200000000     0.103800000000     0.000000000000     0          
C726     C      0.361100000000     0.138900000000     0.000000000000     0          
C727     C      0.396200000000     0.603800000000     0.500000000000     0          
C728     C      0.361100000000     0.638900000000     0.500000000000     0          
H729     H      0.500000000000     0.279600000000     0.779600000000     0          
H730     H      0.000000000000     0.279600000000     0.279600000000     0          
H731     H      0.000000000000     0.720400000000     0.279600000000     0          
H732     H      0.500000000000     0.279600000000     0.220400000000     0          
H733     H      0.000000000000     0.279600000000     0.720400000000     0          
H734     H      0.500000000000     0.720400000000     0.220400000000     0          
H735     H      0.000000000000     0.720400000000     0.720400000000     0          
H736     H      0.779600000000     0.500000000000     0.279600000000     0          
H737     H      0.779600000000     0.000000000000     0.779600000000     0          
H738     H      0.779600000000     0.500000000000     0.720400000000     0          
H739     H      0.779600000000     0.000000000000     0.220400000000     0          
H740     H      0.220400000000     0.500000000000     0.279600000000     0          
H741     H      0.220400000000     0.000000000000     0.779600000000     0          
H742     H      0.220400000000     0.500000000000     0.720400000000     0          
H743     H      0.220400000000     0.000000000000     0.220400000000     0          
H744     H      0.279600000000     0.779600000000     0.500000000000     0          
H745     H      0.279600000000     0.279600000000     0.000000000000     0          
H746     H      0.720400000000     0.779600000000     0.500000000000     0          
H747     H      0.720400000000     0.279600000000     0.000000000000     0          
H748     H      0.279600000000     0.220400000000     0.500000000000     0          
H749     H      0.279600000000     0.720400000000     0.000000000000     0          
H750     H      0.720400000000     0.220400000000     0.500000000000     0          
H751     H      0.720400000000     0.720400000000     0.000000000000     0          
H752     H      0.279600000000     0.500000000000     0.220400000000     0          
H753     H      0.279600000000     0.000000000000     0.720400000000     0          
H754     H      0.720400000000     0.500000000000     0.220400000000     0          
H755     H      0.720400000000     0.000000000000     0.720400000000     0          
H756     H      0.279600000000     0.500000000000     0.779600000000     0          
H757     H      0.279600000000     0.000000000000     0.279600000000     0          
H758     H      0.720400000000     0.500000000000     0.779600000000     0          
H759     H      0.720400000000     0.000000000000     0.279600000000     0          
H760     H      0.000000000000     0.779600000000     0.220400000000     0          
H761     H      0.500000000000     0.779600000000     0.279600000000     0          
H762     H      0.000000000000     0.779600000000     0.779600000000     0          
H763     H      0.500000000000     0.220400000000     0.720400000000     0          
H764     H      0.000000000000     0.220400000000     0.220400000000     0          
H765     H      0.500000000000     0.220400000000     0.279600000000     0          
H766     H      0.000000000000     0.220400000000     0.779600000000     0          
H767     H      0.779600000000     0.279600000000     0.500000000000     0          
H768     H      0.779600000000     0.779600000000     0.000000000000     0          
H769     H      0.779600000000     0.720400000000     0.500000000000     0          
H770     H      0.779600000000     0.220400000000     0.000000000000     0          
H771     H      0.220400000000     0.279600000000     0.500000000000     0          
H772     H      0.220400000000     0.779600000000     0.000000000000     0          
H773     H      0.220400000000     0.720400000000     0.500000000000     0          
H774     H      0.220400000000     0.220400000000     0.000000000000     0          


