data_TEWMUG

_audit_creation_method RASPA-1.0
_audit_creation_date 2020-4-3
_audit_author_name 'Rocio Bueno-Perez'

_cell_length_a    25.4692
_cell_length_b    36.3589
_cell_length_c    21.5275
_cell_angle_alpha 90
_cell_angle_beta  122.26
_cell_angle_gamma 90
_cell_volume      16857.9

_symmetry_cell_setting          monoclinic
_symmetry_space_group_name_Hall 'P 1'
_symmetry_space_group_name_H-M  'P 1'
_symmetry_Int_Tables_number     1

_symmetry_equiv_pos_as_xyz 'x,y,z'

loop_
_atom_site_label
_atom_site_type_symbol
_atom_site_fract_x
_atom_site_fract_y
_atom_site_fract_z
_atom_site_charge
Zr1      Zr     0.387680000000     0.500000000000     0.945310000000     0          
Zr2      Zr     0.511700000000     0.548590000000     0.088400000000     0          
O1       O      0.443600000000     0.549000000000     0.971800000000     0          
O2       O      0.454400000000     0.500000000000     0.061900000000     0          
O3       O      0.565100000000     0.500000000000     0.112600000000     0          
Zr3      Zr     0.058270000000     0.500000000000     0.938090000000     0          
Zr4      Zr     0.069980000000     0.548310000000     0.086400000000     0          
Zr5      Zr     0.324820000000     0.292820000000     0.597410000000     0          
Zr6      Zr     0.235050000000     0.294670000000     0.404130000000     0          
Zr7      Zr     0.335260000000     0.220780000000     0.496110000000     0          
O4       O      0.105600000000     0.500000000000     0.064500000000     0          
O5       O      0.029300000000     0.548400000000     0.971700000000     0          
O6       O      0.042300000000     0.500000000000     0.120400000000     0          
O7       O      0.317500000000     0.276900000000     0.497900000000     0          
O8       O      0.239000000000     0.305400000000     0.501700000000     0          
O9       O      0.253500000000     0.263700000000     0.598300000000     0          
O10      O      0.335300000000     0.234600000000     0.593000000000     0          
O11      O      0.511700000000     0.608500000000     0.084100000000     0          
O12      O      0.526800000000     0.544000000000     0.199900000000     0          
O13      O      0.061900000000     0.607900000000     0.074300000000     0          
O14      O      0.158000000000     0.546300000000     0.192400000000     0          
O15      O      0.379000000000     0.288800000000     0.716800000000     0          
O16      O      0.361100000000     0.346100000000     0.595400000000     0          
O17      O      0.276200000000     0.348700000000     0.413800000000     0          
O18      O      0.177300000000     0.292200000000     0.284500000000     0          
O19      O      0.327500000000     0.463600000000     0.854200000000     0          
O20      O      0.389800000000     0.432200000000     0.829400000000     0          
C1       C      0.337000000000     0.439900000000     0.818600000000     0          
C2       C      0.280400000000     0.420000000000     0.762100000000     0          
C3       C      0.221900000000     0.430200000000     0.746600000000     0          
H1       H      0.219900000000     0.450300000000     0.773600000000     0          
C4       C      0.166800000000     0.413700000000     0.695700000000     0          
C5       C      0.172500000000     0.384000000000     0.656800000000     0          
H2       H      0.136000000000     0.371500000000     0.620700000000     0          
C6       C      0.227800000000     0.372800000000     0.669200000000     0          
C7       C      0.282900000000     0.391300000000     0.723000000000     0          
H3       H      0.321900000000     0.383600000000     0.731800000000     0          
C8       C      0.234200000000     0.341400000000     0.628500000000     0          
O21      O      0.287400000000     0.332900000000     0.641900000000     0          
O22      O      0.183800000000     0.325700000000     0.580800000000     0          
N1       N      0.112700000000     0.427400000000     0.687200000000     0          
N2       N      0.059400000000     0.411400000000     0.638600000000     0          
O23      O      0.031700000000     0.462700000000     0.844800000000     0          
O24      O      0.948200000000     0.431900000000     0.829200000000     0          
C9       C      0.988200000000     0.439100000000     0.811500000000     0          
C10      C      0.986100000000     0.416500000000     0.753500000000     0          
C11      C      0.026100000000     0.423200000000     0.728800000000     0          
H4       H      0.056000000000     0.442400000000     0.750800000000     0          
C12      C      0.022900000000     0.402100000000     0.671900000000     0          
C13      C      0.974400000000     0.376900000000     0.634700000000     0          
H5       H      0.970100000000     0.363700000000     0.594100000000     0          
C14      C      0.931900000000     0.370600000000     0.656200000000     0          
C15      C      0.935000000000     0.391200000000     0.712800000000     0          
H6       H      0.904100000000     0.388600000000     0.724500000000     0          
C16      C      0.883400000000     0.342800000000     0.616200000000     0          
O25      O      0.842400000000     0.336600000000     0.633300000000     0          
O26      O      0.886000000000     0.325500000000     0.567500000000     0          
O27      O      0.139100000000     0.536600000000     0.975900000000     0          
O28      O      0.144200000000     0.567300000000     0.069400000000     0          
C17      C      0.165700000000     0.559200000000     0.031900000000     0          
C18      C      0.227300000000     0.575000000000     0.053200000000     0          
C19      C      0.247300000000     0.604400000000     0.100700000000     0          
H7       H      0.221700000000     0.614300000000     0.116300000000     0          
C20      C      0.305100000000     0.619700000000     0.125700000000     0          
C21      C      0.344400000000     0.604300000000     0.105300000000     0          
H8       H      0.384500000000     0.614300000000     0.123200000000     0          
C22      C      0.323400000000     0.574500000000     0.058800000000     0          
C23      C      0.263900000000     0.560900000000     0.028800000000     0          
H9       H      0.248300000000     0.542300000000     0.992200000000     0          
C24      C      0.366000000000     0.557900000000     0.037900000000     0          
O29      O      0.343200000000     0.536200000000     0.985600000000     0          
O30      O      0.423400000000     0.567500000000     0.078800000000     0          
N3       N      0.322200000000     0.647800000000     0.179000000000     0          
N4       N      0.374600000000     0.660300000000     0.205400000000     0          
O31      O      0.576200000000     0.713300000000     0.367800000000     0          
O32      O      0.567900000000     0.759300000000     0.432300000000     0          
C25      C      0.545000000000     0.733200000000     0.383500000000     0          
C26      C      0.478500000000     0.723000000000     0.350100000000     0          
C27      C      0.456200000000     0.698300000000     0.294900000000     0          
H10      H      0.481300000000     0.689700000000     0.277400000000     0          
C28      C      0.395800000000     0.685800000000     0.264300000000     0          
C29      C      0.359900000000     0.696700000000     0.292900000000     0          
H11      H      0.319500000000     0.686900000000     0.273600000000     0          
C30      C      0.384300000000     0.721600000000     0.349000000000     0          
C31      C      0.444000000000     0.735700000000     0.379100000000     0          
H12      H      0.460700000000     0.753200000000     0.417900000000     0          
C32      C      0.346000000000     0.731300000000     0.381400000000     0          
O33      O      0.364500000000     0.759000000000     0.423200000000     0          
O34      O      0.300700000000     0.712300000000     0.363100000000     0          
Zr5A     Zr     0.675180000000     0.292820000000     0.402590000000     0          
Zr6A     Zr     0.764950000000     0.294670000000     0.595870000000     0          
Zr7A     Zr     0.664740000000     0.220780000000     0.503890000000     0          
O7A      O      0.682500000000     0.276900000000     0.502100000000     0          
O8A      O      0.761000000000     0.305400000000     0.498300000000     0          
O9A      O      0.746500000000     0.263700000000     0.401700000000     0          
O10A     O      0.664700000000     0.234600000000     0.407000000000     0          
O15A     O      0.621000000000     0.288800000000     0.283200000000     0          
O16A     O      0.638900000000     0.346100000000     0.404600000000     0          
O17A     O      0.723800000000     0.348700000000     0.586200000000     0          
O18A     O      0.822700000000     0.292200000000     0.715500000000     0          
O19A     O      0.672500000000     0.463600000000     0.145800000000     0          
O20A     O      0.610200000000     0.432200000000     0.170600000000     0          
C1A      C      0.663000000000     0.439900000000     0.181400000000     0          
C2A      C      0.719600000000     0.420000000000     0.237900000000     0          
C3A      C      0.778100000000     0.430200000000     0.253400000000     0          
H1A      H      0.780100000000     0.450300000000     0.226400000000     0          
C4A      C      0.833200000000     0.413700000000     0.304300000000     0          
C5A      C      0.827500000000     0.384000000000     0.343200000000     0          
H2A      H      0.864000000000     0.371500000000     0.379300000000     0          
C6A      C      0.772200000000     0.372800000000     0.330800000000     0          
C7A      C      0.717100000000     0.391300000000     0.277000000000     0          
H3A      H      0.678100000000     0.383600000000     0.268200000000     0          
C8A      C      0.765800000000     0.341400000000     0.371500000000     0          
O21A     O      0.712600000000     0.332900000000     0.358100000000     0          
O22A     O      0.816200000000     0.325700000000     0.419200000000     0          
N1A      N      0.887300000000     0.427400000000     0.312800000000     0          
N2A      N      0.940600000000     0.411400000000     0.361400000000     0          
O23A     O      0.968300000000     0.462700000000     0.155200000000     0          
O24A     O      0.051800000000     0.431900000000     0.170800000000     0          
C9A      C      0.011800000000     0.439100000000     0.188500000000     0          
C10A     C      0.013900000000     0.416500000000     0.246500000000     0          
C11A     C      0.973900000000     0.423200000000     0.271200000000     0          
H4A      H      0.944000000000     0.442400000000     0.249200000000     0          
C12A     C      0.977100000000     0.402100000000     0.328100000000     0          
C13A     C      0.025600000000     0.376900000000     0.365300000000     0          
H5A      H      0.029900000000     0.363700000000     0.405900000000     0          
C14A     C      0.068100000000     0.370600000000     0.343800000000     0          
C15A     C      0.065000000000     0.391200000000     0.287200000000     0          
H6A      H      0.095900000000     0.388600000000     0.275500000000     0          
C16A     C      0.116600000000     0.342800000000     0.383800000000     0          
O25A     O      0.157600000000     0.336600000000     0.366700000000     0          
O26A     O      0.114000000000     0.325500000000     0.432500000000     0          
Zr2E     Zr     0.511700000000     0.451410000000     0.088400000000     0          
O1E      O      0.443600000000     0.451000000000     0.971800000000     0          
Zr4E     Zr     0.069980000000     0.451690000000     0.086400000000     0          
O5E      O      0.029300000000     0.451600000000     0.971700000000     0          
O11E     O      0.511700000000     0.391500000000     0.084100000000     0          
O12E     O      0.526800000000     0.456000000000     0.199900000000     0          
O13E     O      0.061900000000     0.392100000000     0.074300000000     0          
O14E     O      0.158000000000     0.453700000000     0.192400000000     0          
O27E     O      0.139100000000     0.463400000000     0.975900000000     0          
O28E     O      0.144200000000     0.432700000000     0.069400000000     0          
C17E     C      0.165700000000     0.440800000000     0.031900000000     0          
C18E     C      0.227300000000     0.425000000000     0.053200000000     0          
C19E     C      0.247300000000     0.395600000000     0.100700000000     0          
H7E      H      0.221700000000     0.385700000000     0.116300000000     0          
C20E     C      0.305100000000     0.380300000000     0.125700000000     0          
C21E     C      0.344400000000     0.395700000000     0.105300000000     0          
H8E      H      0.384500000000     0.385700000000     0.123200000000     0          
C22E     C      0.323400000000     0.425500000000     0.058800000000     0          
C23E     C      0.263900000000     0.439100000000     0.028800000000     0          
H9E      H      0.248300000000     0.457700000000     0.992200000000     0          
C24E     C      0.366000000000     0.442100000000     0.037900000000     0          
O29E     O      0.343200000000     0.463800000000     0.985600000000     0          
O30E     O      0.423400000000     0.432500000000     0.078800000000     0          
N3E      N      0.322200000000     0.352200000000     0.179000000000     0          
N4E      N      0.374600000000     0.339700000000     0.205400000000     0          
O31E     O      0.576200000000     0.286700000000     0.367800000000     0          
O32E     O      0.567900000000     0.240700000000     0.432300000000     0          
C25E     C      0.545000000000     0.266800000000     0.383500000000     0          
C26E     C      0.478500000000     0.277000000000     0.350100000000     0          
C27E     C      0.456200000000     0.301700000000     0.294900000000     0          
H10E     H      0.481300000000     0.310300000000     0.277400000000     0          
C28E     C      0.395800000000     0.314200000000     0.264300000000     0          
C29E     C      0.359900000000     0.303300000000     0.292900000000     0          
H11E     H      0.319500000000     0.313100000000     0.273600000000     0          
C30E     C      0.384300000000     0.278400000000     0.349000000000     0          
C31E     C      0.444000000000     0.264300000000     0.379100000000     0          
H12E     H      0.460700000000     0.246800000000     0.417900000000     0          
C32E     C      0.346000000000     0.268700000000     0.381400000000     0          
O33E     O      0.364500000000     0.241000000000     0.423200000000     0          
O34E     O      0.300700000000     0.287700000000     0.363100000000     0          
Zr1A     Zr     0.612320000000     0.500000000000     0.054690000000     0          
Zr2A     Zr     0.488300000000     0.548590000000     0.911600000000     0          
Zr2D     Zr     0.488300000000     0.451410000000     0.911600000000     0          
O1A      O      0.556400000000     0.549000000000     0.028200000000     0          
O1D      O      0.556400000000     0.451000000000     0.028200000000     0          
O3A      O      0.434900000000     0.500000000000     0.887400000000     0          
Zr3A     Zr     0.941730000000     0.500000000000     0.061910000000     0          
Zr4A     Zr     0.930020000000     0.548310000000     0.913600000000     0          
Zr4D     Zr     0.930020000000     0.451690000000     0.913600000000     0          
Zr5D     Zr     0.675180000000     0.707180000000     0.402590000000     0          
Zr6E     Zr     0.235050000000     0.705330000000     0.404130000000     0          
Zr6F     Zr     0.264950000000     0.205330000000     0.595870000000     0          
Zr6G     Zr     0.735050000000     0.205330000000     0.404130000000     0          
Zr7D     Zr     0.664740000000     0.779220000000     0.503890000000     0          
Zr7E     Zr     0.335260000000     0.779220000000     0.496110000000     0          
Zr7F     Zr     0.164740000000     0.279220000000     0.503890000000     0          
Zr7G     Zr     0.835260000000     0.279220000000     0.496110000000     0          
O5A      O      0.970700000000     0.548400000000     0.028300000000     0          
O5D      O      0.970700000000     0.451600000000     0.028300000000     0          
O6A      O      0.957700000000     0.500000000000     0.879600000000     0          
O8F      O      0.261000000000     0.194600000000     0.498300000000     0          
O8G      O      0.739000000000     0.194600000000     0.501700000000     0          
O9F      O      0.246500000000     0.236300000000     0.401700000000     0          
O9G      O      0.753500000000     0.236300000000     0.598300000000     0          
O10F     O      0.164700000000     0.265400000000     0.407000000000     0          
O10G     O      0.835300000000     0.265400000000     0.593000000000     0          
O19E     O      0.327500000000     0.536400000000     0.854200000000     0          
O20D     O      0.610200000000     0.567800000000     0.170600000000     0          
O22F     O      0.316200000000     0.174300000000     0.419200000000     0          
O22G     O      0.683800000000     0.174300000000     0.580800000000     0          
O23E     O      0.031700000000     0.537300000000     0.844800000000     0          
O24D     O      0.051800000000     0.568100000000     0.170800000000     0          
O26F     O      0.614000000000     0.174500000000     0.432500000000     0          
O26G     O      0.386000000000     0.174500000000     0.567500000000     0          
O31D     O      0.423800000000     0.286700000000     0.632200000000     0          
O32D     O      0.432100000000     0.240700000000     0.567700000000     0          
O33D     O      0.635500000000     0.241000000000     0.576800000000     0          
O34D     O      0.699300000000     0.287700000000     0.636900000000     0          
O2       O      0.545600000000     0.500000000000     0.938100000000     0          
O4       O      0.894400000000     0.500000000000     0.935500000000     0          
O11      O      0.488300000000     0.608500000000     0.915900000000     0          
O12      O      0.473200000000     0.544000000000     0.800100000000     0          
O13      O      0.938100000000     0.607900000000     0.925700000000     0          
O14      O      0.842000000000     0.546300000000     0.807600000000     0          
O27      O      0.860900000000     0.536600000000     0.024100000000     0          
O28      O      0.855800000000     0.567300000000     0.930600000000     0          
C17      C      0.834300000000     0.559200000000     0.968100000000     0          
C18      C      0.772700000000     0.575000000000     0.946800000000     0          
C19      C      0.752700000000     0.604400000000     0.899300000000     0          
H7       H      0.778300000000     0.614300000000     0.883700000000     0          
C20      C      0.694900000000     0.619700000000     0.874300000000     0          
C21      C      0.655600000000     0.604300000000     0.894700000000     0          
H8       H      0.615500000000     0.614300000000     0.876800000000     0          
C22      C      0.676600000000     0.574500000000     0.941200000000     0          
C23      C      0.736100000000     0.560900000000     0.971200000000     0          
H9       H      0.751700000000     0.542300000000     0.007800000000     0          
C24      C      0.634000000000     0.557900000000     0.962100000000     0          
O29      O      0.656800000000     0.536200000000     0.014400000000     0          
O30      O      0.576600000000     0.567500000000     0.921200000000     0          
N3       N      0.677800000000     0.647800000000     0.821000000000     0          
N4       N      0.625400000000     0.660300000000     0.794600000000     0          
O31      O      0.423800000000     0.713300000000     0.632200000000     0          
O32      O      0.432100000000     0.759300000000     0.567700000000     0          
C25      C      0.455000000000     0.733200000000     0.616500000000     0          
C26      C      0.521500000000     0.723000000000     0.649900000000     0          
C27      C      0.543800000000     0.698300000000     0.705100000000     0          
H10      H      0.518700000000     0.689700000000     0.722600000000     0          
C28      C      0.604200000000     0.685800000000     0.735700000000     0          
C29      C      0.640100000000     0.696700000000     0.707100000000     0          
H11      H      0.680500000000     0.686900000000     0.726400000000     0          
C30      C      0.615700000000     0.721600000000     0.651000000000     0          
C31      C      0.556000000000     0.735700000000     0.620900000000     0          
H12      H      0.539300000000     0.753200000000     0.582100000000     0          
C32      C      0.654000000000     0.731300000000     0.618600000000     0          
O33      O      0.635500000000     0.759000000000     0.576800000000     0          
O34      O      0.699300000000     0.712300000000     0.636900000000     0          
O11E     O      0.488300000000     0.391500000000     0.915900000000     0          
O12E     O      0.473200000000     0.456000000000     0.800100000000     0          
O13E     O      0.938100000000     0.392100000000     0.925700000000     0          
O14E     O      0.842000000000     0.453700000000     0.807600000000     0          
O27E     O      0.860900000000     0.463400000000     0.024100000000     0          
O28E     O      0.855800000000     0.432700000000     0.930600000000     0          
C17E     C      0.834300000000     0.440800000000     0.968100000000     0          
C18E     C      0.772700000000     0.425000000000     0.946800000000     0          
C19E     C      0.752700000000     0.395600000000     0.899300000000     0          
H7E      H      0.778300000000     0.385700000000     0.883700000000     0          
C20E     C      0.694900000000     0.380300000000     0.874300000000     0          
C21E     C      0.655600000000     0.395700000000     0.894700000000     0          
H8E      H      0.615500000000     0.385700000000     0.876800000000     0          
C22E     C      0.676600000000     0.425500000000     0.941200000000     0          
C23E     C      0.736100000000     0.439100000000     0.971200000000     0          
H9E      H      0.751700000000     0.457700000000     0.007800000000     0          
C24E     C      0.634000000000     0.442100000000     0.962100000000     0          
O29E     O      0.656800000000     0.463800000000     0.014400000000     0          
O30E     O      0.576600000000     0.432500000000     0.921200000000     0          
N3E      N      0.677800000000     0.352200000000     0.821000000000     0          
N4E      N      0.625400000000     0.339700000000     0.794600000000     0          
C25E     C      0.455000000000     0.266800000000     0.616500000000     0          
C26E     C      0.521500000000     0.277000000000     0.649900000000     0          
C27E     C      0.543800000000     0.301700000000     0.705100000000     0          
H10E     H      0.518700000000     0.310300000000     0.722600000000     0          
C28E     C      0.604200000000     0.314200000000     0.735700000000     0          
C29E     C      0.640100000000     0.303300000000     0.707100000000     0          
H11E     H      0.680500000000     0.313100000000     0.726400000000     0          
C30E     C      0.615700000000     0.278400000000     0.651000000000     0          
C31E     C      0.556000000000     0.264300000000     0.620900000000     0          
H12E     H      0.539300000000     0.246800000000     0.582100000000     0          
C32E     C      0.654000000000     0.268700000000     0.618600000000     0          
Zr5D     Zr     0.324820000000     0.707180000000     0.597410000000     0          
Zr6E     Zr     0.764950000000     0.705330000000     0.595870000000     0          
O19E     O      0.672500000000     0.536400000000     0.145800000000     0          
O20D     O      0.389800000000     0.567800000000     0.829400000000     0          
O23E     O      0.968300000000     0.537300000000     0.155200000000     0          
O24D     O      0.948200000000     0.568100000000     0.829200000000     0          
O7       O      0.682500000000     0.723100000000     0.502100000000     0          
O8       O      0.761000000000     0.694600000000     0.498300000000     0          
O9       O      0.746500000000     0.736300000000     0.401700000000     0          
O10      O      0.664700000000     0.765400000000     0.407000000000     0          
O15      O      0.621000000000     0.711200000000     0.283200000000     0          
O16      O      0.638900000000     0.653900000000     0.404600000000     0          
O17      O      0.723800000000     0.651300000000     0.586200000000     0          
O18      O      0.822700000000     0.707800000000     0.715500000000     0          
C1       C      0.663000000000     0.560100000000     0.181400000000     0          
C2       C      0.719600000000     0.580000000000     0.237900000000     0          
C3       C      0.778100000000     0.569800000000     0.253400000000     0          
H1       H      0.780100000000     0.549700000000     0.226400000000     0          
C4       C      0.833200000000     0.586300000000     0.304300000000     0          
C5       C      0.827500000000     0.616000000000     0.343200000000     0          
H2       H      0.864000000000     0.628500000000     0.379300000000     0          
C6       C      0.772200000000     0.627200000000     0.330800000000     0          
C7       C      0.717100000000     0.608700000000     0.277000000000     0          
H3       H      0.678100000000     0.616400000000     0.268200000000     0          
C8       C      0.765800000000     0.658600000000     0.371500000000     0          
O21      O      0.712600000000     0.667100000000     0.358100000000     0          
O22      O      0.816200000000     0.674300000000     0.419200000000     0          
N1       N      0.887300000000     0.572600000000     0.312800000000     0          
N2       N      0.940600000000     0.588600000000     0.361400000000     0          
C9       C      0.011800000000     0.560900000000     0.188500000000     0          
C10      C      0.013900000000     0.583500000000     0.246500000000     0          
C11      C      0.973900000000     0.576800000000     0.271200000000     0          
H4       H      0.944000000000     0.557600000000     0.249200000000     0          
C12      C      0.977100000000     0.597900000000     0.328100000000     0          
C13      C      0.025600000000     0.623100000000     0.365300000000     0          
H5       H      0.029900000000     0.636300000000     0.405900000000     0          
C14      C      0.068100000000     0.629400000000     0.343800000000     0          
C15      C      0.065000000000     0.608800000000     0.287200000000     0          
H6       H      0.095900000000     0.611400000000     0.275500000000     0          
C16      C      0.116600000000     0.657200000000     0.383800000000     0          
O25      O      0.157600000000     0.663400000000     0.366700000000     0          
O26      O      0.114000000000     0.674500000000     0.432500000000     0          
O7A      O      0.317500000000     0.723100000000     0.497900000000     0          
O8A      O      0.239000000000     0.694600000000     0.501700000000     0          
O9A      O      0.253500000000     0.736300000000     0.598300000000     0          
O10A     O      0.335300000000     0.765400000000     0.593000000000     0          
O15A     O      0.379000000000     0.711200000000     0.716800000000     0          
O16A     O      0.361100000000     0.653900000000     0.595400000000     0          
O17A     O      0.276200000000     0.651300000000     0.413800000000     0          
O18A     O      0.177300000000     0.707800000000     0.284500000000     0          
C1A      C      0.337000000000     0.560100000000     0.818600000000     0          
C2A      C      0.280400000000     0.580000000000     0.762100000000     0          
C3A      C      0.221900000000     0.569800000000     0.746600000000     0          
H1A      H      0.219900000000     0.549700000000     0.773600000000     0          
C4A      C      0.166800000000     0.586300000000     0.695700000000     0          
C5A      C      0.172500000000     0.616000000000     0.656800000000     0          
H2A      H      0.136000000000     0.628500000000     0.620700000000     0          
C6A      C      0.227800000000     0.627200000000     0.669200000000     0          
C7A      C      0.282900000000     0.608700000000     0.723000000000     0          
H3A      H      0.321900000000     0.616400000000     0.731800000000     0          
C8A      C      0.234200000000     0.658600000000     0.628500000000     0          
O21A     O      0.287400000000     0.667100000000     0.641900000000     0          
O22A     O      0.183800000000     0.674300000000     0.580800000000     0          
N1A      N      0.112700000000     0.572600000000     0.687200000000     0          
N2A      N      0.059400000000     0.588600000000     0.638600000000     0          
C9A      C      0.988200000000     0.560900000000     0.811500000000     0          
C10A     C      0.986100000000     0.583500000000     0.753500000000     0          
C11A     C      0.026100000000     0.576800000000     0.728800000000     0          
H4A      H      0.056000000000     0.557600000000     0.750800000000     0          
C12A     C      0.022900000000     0.597900000000     0.671900000000     0          
C13A     C      0.974400000000     0.623100000000     0.634700000000     0          
H5A      H      0.970100000000     0.636300000000     0.594100000000     0          
C14A     C      0.931900000000     0.629400000000     0.656200000000     0          
C15A     C      0.935000000000     0.608800000000     0.712800000000     0          
H6A      H      0.904100000000     0.611400000000     0.724500000000     0          
C16A     C      0.883400000000     0.657200000000     0.616200000000     0          
O25A     O      0.842400000000     0.663400000000     0.633300000000     0          
O26A     O      0.886000000000     0.674500000000     0.567500000000     0          
Zr6F     Zr     0.735050000000     0.794670000000     0.404130000000     0          
Zr6G     Zr     0.264950000000     0.794670000000     0.595870000000     0          
Zr7F     Zr     0.835260000000     0.720780000000     0.496110000000     0          
Zr7G     Zr     0.164740000000     0.720780000000     0.503890000000     0          
O8F      O      0.739000000000     0.805400000000     0.501700000000     0          
O8G      O      0.261000000000     0.805400000000     0.498300000000     0          
O9F      O      0.753500000000     0.763700000000     0.598300000000     0          
O9G      O      0.246500000000     0.763700000000     0.401700000000     0          
O10F     O      0.835300000000     0.734600000000     0.593000000000     0          
O10G     O      0.164700000000     0.734600000000     0.407000000000     0          
O22F     O      0.683800000000     0.825700000000     0.580800000000     0          
O22G     O      0.316200000000     0.825700000000     0.419200000000     0          
O26F     O      0.386000000000     0.825500000000     0.567500000000     0          
O26G     O      0.614000000000     0.825500000000     0.432500000000     0          
Zr1      Zr     0.887680000000     0.000000000000     0.945310000000     0          
Zr2      Zr     0.011700000000     0.048590000000     0.088400000000     0          
O1       O      0.943600000000     0.049000000000     0.971800000000     0          
O2       O      0.954400000000     0.000000000000     0.061900000000     0          
O3       O      0.065100000000     0.000000000000     0.112600000000     0          
Zr3      Zr     0.558270000000     0.000000000000     0.938090000000     0          
Zr4      Zr     0.569980000000     0.048310000000     0.086400000000     0          
Zr5      Zr     0.824820000000     0.792820000000     0.597410000000     0          
O4       O      0.605600000000     0.000000000000     0.064500000000     0          
O5       O      0.529300000000     0.048400000000     0.971700000000     0          
O6       O      0.542300000000     0.000000000000     0.120400000000     0          
O7       O      0.817500000000     0.776900000000     0.497900000000     0          
O11      O      0.011700000000     0.108500000000     0.084100000000     0          
O12      O      0.026800000000     0.044000000000     0.199900000000     0          
O13      O      0.561900000000     0.107900000000     0.074300000000     0          
O14      O      0.658000000000     0.046300000000     0.192400000000     0          
O15      O      0.879000000000     0.788800000000     0.716800000000     0          
O16      O      0.861100000000     0.846100000000     0.595400000000     0          
O17      O      0.776200000000     0.848700000000     0.413800000000     0          
O18      O      0.677300000000     0.792200000000     0.284500000000     0          
O19      O      0.827500000000     0.963600000000     0.854200000000     0          
O20      O      0.889800000000     0.932200000000     0.829400000000     0          
C1       C      0.837000000000     0.939900000000     0.818600000000     0          
C2       C      0.780400000000     0.920000000000     0.762100000000     0          
C3       C      0.721900000000     0.930200000000     0.746600000000     0          
H1       H      0.719900000000     0.950300000000     0.773600000000     0          
C4       C      0.666800000000     0.913700000000     0.695700000000     0          
C5       C      0.672500000000     0.884000000000     0.656800000000     0          
H2       H      0.636000000000     0.871500000000     0.620700000000     0          
C6       C      0.727800000000     0.872800000000     0.669200000000     0          
C7       C      0.782900000000     0.891300000000     0.723000000000     0          
H3       H      0.821900000000     0.883600000000     0.731800000000     0          
C8       C      0.734200000000     0.841400000000     0.628500000000     0          
O21      O      0.787400000000     0.832900000000     0.641900000000     0          
N1       N      0.612700000000     0.927400000000     0.687200000000     0          
N2       N      0.559400000000     0.911400000000     0.638600000000     0          
O23      O      0.531700000000     0.962700000000     0.844800000000     0          
O24      O      0.448200000000     0.931900000000     0.829200000000     0          
C9       C      0.488200000000     0.939100000000     0.811500000000     0          
C10      C      0.486100000000     0.916500000000     0.753500000000     0          
C11      C      0.526100000000     0.923200000000     0.728800000000     0          
H4       H      0.556000000000     0.942400000000     0.750800000000     0          
C12      C      0.522900000000     0.902100000000     0.671900000000     0          
C13      C      0.474400000000     0.876900000000     0.634700000000     0          
H5       H      0.470100000000     0.863700000000     0.594100000000     0          
C14      C      0.431900000000     0.870600000000     0.656200000000     0          
C15      C      0.435000000000     0.891200000000     0.712800000000     0          
H6       H      0.404100000000     0.888600000000     0.724500000000     0          
C16      C      0.383400000000     0.842800000000     0.616200000000     0          
O25      O      0.342400000000     0.836600000000     0.633300000000     0          
O27      O      0.639100000000     0.036600000000     0.975900000000     0          
O28      O      0.644200000000     0.067300000000     0.069400000000     0          
C17      C      0.665700000000     0.059200000000     0.031900000000     0          
C18      C      0.727300000000     0.075000000000     0.053200000000     0          
C19      C      0.747300000000     0.104400000000     0.100700000000     0          
H7       H      0.721700000000     0.114300000000     0.116300000000     0          
C20      C      0.805100000000     0.119700000000     0.125700000000     0          
C21      C      0.844400000000     0.104300000000     0.105300000000     0          
H8       H      0.884500000000     0.114300000000     0.123200000000     0          
C22      C      0.823400000000     0.074500000000     0.058800000000     0          
C23      C      0.763900000000     0.060900000000     0.028800000000     0          
H9       H      0.748300000000     0.042300000000     0.992200000000     0          
C24      C      0.866000000000     0.057900000000     0.037900000000     0          
O29      O      0.843200000000     0.036200000000     0.985600000000     0          
O30      O      0.923400000000     0.067500000000     0.078800000000     0          
N3       N      0.822200000000     0.147800000000     0.179000000000     0          
N4       N      0.874600000000     0.160300000000     0.205400000000     0          
O31      O      0.076200000000     0.213300000000     0.367800000000     0          
O32      O      0.067900000000     0.259300000000     0.432300000000     0          
C25      C      0.045000000000     0.233200000000     0.383500000000     0          
C26      C      0.978500000000     0.223000000000     0.350100000000     0          
C27      C      0.956200000000     0.198300000000     0.294900000000     0          
H10      H      0.981300000000     0.189700000000     0.277400000000     0          
C28      C      0.895800000000     0.185800000000     0.264300000000     0          
C29      C      0.859900000000     0.196700000000     0.292900000000     0          
H11      H      0.819500000000     0.186900000000     0.273600000000     0          
C30      C      0.884300000000     0.221600000000     0.349000000000     0          
C31      C      0.944000000000     0.235700000000     0.379100000000     0          
H12      H      0.960700000000     0.253200000000     0.417900000000     0          
C32      C      0.846000000000     0.231300000000     0.381400000000     0          
O33      O      0.864500000000     0.259000000000     0.423200000000     0          
O34      O      0.800700000000     0.212300000000     0.363100000000     0          
Zr5A     Zr     0.175180000000     0.792820000000     0.402590000000     0          
O7A      O      0.182500000000     0.776900000000     0.502100000000     0          
O15A     O      0.121000000000     0.788800000000     0.283200000000     0          
O16A     O      0.138900000000     0.846100000000     0.404600000000     0          
O17A     O      0.223800000000     0.848700000000     0.586200000000     0          
O18A     O      0.322700000000     0.792200000000     0.715500000000     0          
O19A     O      0.172500000000     0.963600000000     0.145800000000     0          
O20A     O      0.110200000000     0.932200000000     0.170600000000     0          
C1A      C      0.163000000000     0.939900000000     0.181400000000     0          
C2A      C      0.219600000000     0.920000000000     0.237900000000     0          
C3A      C      0.278100000000     0.930200000000     0.253400000000     0          
H1A      H      0.280100000000     0.950300000000     0.226400000000     0          
C4A      C      0.333200000000     0.913700000000     0.304300000000     0          
C5A      C      0.327500000000     0.884000000000     0.343200000000     0          
H2A      H      0.364000000000     0.871500000000     0.379300000000     0          
C6A      C      0.272200000000     0.872800000000     0.330800000000     0          
C7A      C      0.217100000000     0.891300000000     0.277000000000     0          
H3A      H      0.178100000000     0.883600000000     0.268200000000     0          
C8A      C      0.265800000000     0.841400000000     0.371500000000     0          
O21A     O      0.212600000000     0.832900000000     0.358100000000     0          
N1A      N      0.387300000000     0.927400000000     0.312800000000     0          
N2A      N      0.440600000000     0.911400000000     0.361400000000     0          
O23A     O      0.468300000000     0.962700000000     0.155200000000     0          
O24A     O      0.551800000000     0.931900000000     0.170800000000     0          
C9A      C      0.511800000000     0.939100000000     0.188500000000     0          
C10A     C      0.513900000000     0.916500000000     0.246500000000     0          
C11A     C      0.473900000000     0.923200000000     0.271200000000     0          
H4A      H      0.444000000000     0.942400000000     0.249200000000     0          
C12A     C      0.477100000000     0.902100000000     0.328100000000     0          
C13A     C      0.525600000000     0.876900000000     0.365300000000     0          
H5A      H      0.529900000000     0.863700000000     0.405900000000     0          
C14A     C      0.568100000000     0.870600000000     0.343800000000     0          
C15A     C      0.565000000000     0.891200000000     0.287200000000     0          
H6A      H      0.595900000000     0.888600000000     0.275500000000     0          
C16A     C      0.616600000000     0.842800000000     0.383800000000     0          
O25A     O      0.657600000000     0.836600000000     0.366700000000     0          
Zr2E     Zr     0.011700000000     0.951410000000     0.088400000000     0          
O1E      O      0.943600000000     0.951000000000     0.971800000000     0          
Zr4E     Zr     0.569980000000     0.951690000000     0.086400000000     0          
O5E      O      0.529300000000     0.951600000000     0.971700000000     0          
O11E     O      0.011700000000     0.891500000000     0.084100000000     0          
O12E     O      0.026800000000     0.956000000000     0.199900000000     0          
O13E     O      0.561900000000     0.892100000000     0.074300000000     0          
O14E     O      0.658000000000     0.953700000000     0.192400000000     0          
O27E     O      0.639100000000     0.963400000000     0.975900000000     0          
O28E     O      0.644200000000     0.932700000000     0.069400000000     0          
C17E     C      0.665700000000     0.940800000000     0.031900000000     0          
C18E     C      0.727300000000     0.925000000000     0.053200000000     0          
C19E     C      0.747300000000     0.895600000000     0.100700000000     0          
H7E      H      0.721700000000     0.885700000000     0.116300000000     0          
C20E     C      0.805100000000     0.880300000000     0.125700000000     0          
C21E     C      0.844400000000     0.895700000000     0.105300000000     0          
H8E      H      0.884500000000     0.885700000000     0.123200000000     0          
C22E     C      0.823400000000     0.925500000000     0.058800000000     0          
C23E     C      0.763900000000     0.939100000000     0.028800000000     0          
H9E      H      0.748300000000     0.957700000000     0.992200000000     0          
C24E     C      0.866000000000     0.942100000000     0.037900000000     0          
O29E     O      0.843200000000     0.963800000000     0.985600000000     0          
O30E     O      0.923400000000     0.932500000000     0.078800000000     0          
N3E      N      0.822200000000     0.852200000000     0.179000000000     0          
N4E      N      0.874600000000     0.839700000000     0.205400000000     0          
O31E     O      0.076200000000     0.786700000000     0.367800000000     0          
O32E     O      0.067900000000     0.740700000000     0.432300000000     0          
C25E     C      0.045000000000     0.766800000000     0.383500000000     0          
C26E     C      0.978500000000     0.777000000000     0.350100000000     0          
C27E     C      0.956200000000     0.801700000000     0.294900000000     0          
H10E     H      0.981300000000     0.810300000000     0.277400000000     0          
C28E     C      0.895800000000     0.814200000000     0.264300000000     0          
C29E     C      0.859900000000     0.803300000000     0.292900000000     0          
H11E     H      0.819500000000     0.813100000000     0.273600000000     0          
C30E     C      0.884300000000     0.778400000000     0.349000000000     0          
C31E     C      0.944000000000     0.764300000000     0.379100000000     0          
H12E     H      0.960700000000     0.746800000000     0.417900000000     0          
C32E     C      0.846000000000     0.768700000000     0.381400000000     0          
O33E     O      0.864500000000     0.741000000000     0.423200000000     0          
O34E     O      0.800700000000     0.787700000000     0.363100000000     0          
Zr1A     Zr     0.112320000000     0.000000000000     0.054690000000     0          
Zr2A     Zr     0.988300000000     0.048590000000     0.911600000000     0          
Zr2D     Zr     0.988300000000     0.951410000000     0.911600000000     0          
O1A      O      0.056400000000     0.049000000000     0.028200000000     0          
O1D      O      0.056400000000     0.951000000000     0.028200000000     0          
O3A      O      0.934900000000     0.000000000000     0.887400000000     0          
Zr3A     Zr     0.441730000000     0.000000000000     0.061910000000     0          
Zr4A     Zr     0.430020000000     0.048310000000     0.913600000000     0          
Zr4D     Zr     0.430020000000     0.951690000000     0.913600000000     0          
Zr5D     Zr     0.175180000000     0.207180000000     0.402590000000     0          
O5A      O      0.470700000000     0.048400000000     0.028300000000     0          
O5D      O      0.470700000000     0.951600000000     0.028300000000     0          
O6A      O      0.457700000000     0.000000000000     0.879600000000     0          
O19E     O      0.827500000000     0.036400000000     0.854200000000     0          
O20D     O      0.110200000000     0.067800000000     0.170600000000     0          
O23E     O      0.531700000000     0.037300000000     0.844800000000     0          
O24D     O      0.551800000000     0.068100000000     0.170800000000     0          
O31D     O      0.923800000000     0.786700000000     0.632200000000     0          
O32D     O      0.932100000000     0.740700000000     0.567700000000     0          
O33D     O      0.135500000000     0.741000000000     0.576800000000     0          
O34D     O      0.199300000000     0.787700000000     0.636900000000     0          
O2       O      0.045600000000     0.000000000000     0.938100000000     0          
O4       O      0.394400000000     0.000000000000     0.935500000000     0          
O11      O      0.988300000000     0.108500000000     0.915900000000     0          
O12      O      0.973200000000     0.044000000000     0.800100000000     0          
O13      O      0.438100000000     0.107900000000     0.925700000000     0          
O14      O      0.342000000000     0.046300000000     0.807600000000     0          
O27      O      0.360900000000     0.036600000000     0.024100000000     0          
O28      O      0.355800000000     0.067300000000     0.930600000000     0          
C17      C      0.334300000000     0.059200000000     0.968100000000     0          
C18      C      0.272700000000     0.075000000000     0.946800000000     0          
C19      C      0.252700000000     0.104400000000     0.899300000000     0          
H7       H      0.278300000000     0.114300000000     0.883700000000     0          
C20      C      0.194900000000     0.119700000000     0.874300000000     0          
C21      C      0.155600000000     0.104300000000     0.894700000000     0          
H8       H      0.115500000000     0.114300000000     0.876800000000     0          
C22      C      0.176600000000     0.074500000000     0.941200000000     0          
C23      C      0.236100000000     0.060900000000     0.971200000000     0          
H9       H      0.251700000000     0.042300000000     0.007800000000     0          
C24      C      0.134000000000     0.057900000000     0.962100000000     0          
O29      O      0.156800000000     0.036200000000     0.014400000000     0          
O30      O      0.076600000000     0.067500000000     0.921200000000     0          
N3       N      0.177800000000     0.147800000000     0.821000000000     0          
N4       N      0.125400000000     0.160300000000     0.794600000000     0          
O31      O      0.923800000000     0.213300000000     0.632200000000     0          
O32      O      0.932100000000     0.259300000000     0.567700000000     0          
C25      C      0.955000000000     0.233200000000     0.616500000000     0          
C26      C      0.021500000000     0.223000000000     0.649900000000     0          
C27      C      0.043800000000     0.198300000000     0.705100000000     0          
H10      H      0.018700000000     0.189700000000     0.722600000000     0          
C28      C      0.104200000000     0.185800000000     0.735700000000     0          
C29      C      0.140100000000     0.196700000000     0.707100000000     0          
H11      H      0.180500000000     0.186900000000     0.726400000000     0          
C30      C      0.115700000000     0.221600000000     0.651000000000     0          
C31      C      0.056000000000     0.235700000000     0.620900000000     0          
H12      H      0.039300000000     0.253200000000     0.582100000000     0          
C32      C      0.154000000000     0.231300000000     0.618600000000     0          
O33      O      0.135500000000     0.259000000000     0.576800000000     0          
O34      O      0.199300000000     0.212300000000     0.636900000000     0          
O11E     O      0.988300000000     0.891500000000     0.915900000000     0          
O12E     O      0.973200000000     0.956000000000     0.800100000000     0          
O13E     O      0.438100000000     0.892100000000     0.925700000000     0          
O14E     O      0.342000000000     0.953700000000     0.807600000000     0          
O27E     O      0.360900000000     0.963400000000     0.024100000000     0          
O28E     O      0.355800000000     0.932700000000     0.930600000000     0          
C17E     C      0.334300000000     0.940800000000     0.968100000000     0          
C18E     C      0.272700000000     0.925000000000     0.946800000000     0          
C19E     C      0.252700000000     0.895600000000     0.899300000000     0          
H7E      H      0.278300000000     0.885700000000     0.883700000000     0          
C20E     C      0.194900000000     0.880300000000     0.874300000000     0          
C21E     C      0.155600000000     0.895700000000     0.894700000000     0          
H8E      H      0.115500000000     0.885700000000     0.876800000000     0          
C22E     C      0.176600000000     0.925500000000     0.941200000000     0          
C23E     C      0.236100000000     0.939100000000     0.971200000000     0          
H9E      H      0.251700000000     0.957700000000     0.007800000000     0          
C24E     C      0.134000000000     0.942100000000     0.962100000000     0          
O29E     O      0.156800000000     0.963800000000     0.014400000000     0          
O30E     O      0.076600000000     0.932500000000     0.921200000000     0          
N3E      N      0.177800000000     0.852200000000     0.821000000000     0          
N4E      N      0.125400000000     0.839700000000     0.794600000000     0          
C25E     C      0.955000000000     0.766800000000     0.616500000000     0          
C26E     C      0.021500000000     0.777000000000     0.649900000000     0          
C27E     C      0.043800000000     0.801700000000     0.705100000000     0          
H10E     H      0.018700000000     0.810300000000     0.722600000000     0          
C28E     C      0.104200000000     0.814200000000     0.735700000000     0          
C29E     C      0.140100000000     0.803300000000     0.707100000000     0          
H11E     H      0.180500000000     0.813100000000     0.726400000000     0          
C30E     C      0.115700000000     0.778400000000     0.651000000000     0          
C31E     C      0.056000000000     0.764300000000     0.620900000000     0          
H12E     H      0.039300000000     0.746800000000     0.582100000000     0          
C32E     C      0.154000000000     0.768700000000     0.618600000000     0          
Zr5D     Zr     0.824820000000     0.207180000000     0.597410000000     0          
O19E     O      0.172500000000     0.036400000000     0.145800000000     0          
O20D     O      0.889800000000     0.067800000000     0.829400000000     0          
O23E     O      0.468300000000     0.037300000000     0.155200000000     0          
O24D     O      0.448200000000     0.068100000000     0.829200000000     0          
O7       O      0.182500000000     0.223100000000     0.502100000000     0          
O15      O      0.121000000000     0.211200000000     0.283200000000     0          
O16      O      0.138900000000     0.153900000000     0.404600000000     0          
O17      O      0.223800000000     0.151300000000     0.586200000000     0          
O18      O      0.322700000000     0.207800000000     0.715500000000     0          
C1       C      0.163000000000     0.060100000000     0.181400000000     0          
C2       C      0.219600000000     0.080000000000     0.237900000000     0          
C3       C      0.278100000000     0.069800000000     0.253400000000     0          
H1       H      0.280100000000     0.049700000000     0.226400000000     0          
C4       C      0.333200000000     0.086300000000     0.304300000000     0          
C5       C      0.327500000000     0.116000000000     0.343200000000     0          
H2       H      0.364000000000     0.128500000000     0.379300000000     0          
C6       C      0.272200000000     0.127200000000     0.330800000000     0          
C7       C      0.217100000000     0.108700000000     0.277000000000     0          
H3       H      0.178100000000     0.116400000000     0.268200000000     0          
C8       C      0.265800000000     0.158600000000     0.371500000000     0          
O21      O      0.212600000000     0.167100000000     0.358100000000     0          
N1       N      0.387300000000     0.072600000000     0.312800000000     0          
N2       N      0.440600000000     0.088600000000     0.361400000000     0          
C9       C      0.511800000000     0.060900000000     0.188500000000     0          
C10      C      0.513900000000     0.083500000000     0.246500000000     0          
C11      C      0.473900000000     0.076800000000     0.271200000000     0          
H4       H      0.444000000000     0.057600000000     0.249200000000     0          
C12      C      0.477100000000     0.097900000000     0.328100000000     0          
C13      C      0.525600000000     0.123100000000     0.365300000000     0          
H5       H      0.529900000000     0.136300000000     0.405900000000     0          
C14      C      0.568100000000     0.129400000000     0.343800000000     0          
C15      C      0.565000000000     0.108800000000     0.287200000000     0          
H6       H      0.595900000000     0.111400000000     0.275500000000     0          
C16      C      0.616600000000     0.157200000000     0.383800000000     0          
O25      O      0.657600000000     0.163400000000     0.366700000000     0          
O7A      O      0.817500000000     0.223100000000     0.497900000000     0          
O15A     O      0.879000000000     0.211200000000     0.716800000000     0          
O16A     O      0.861100000000     0.153900000000     0.595400000000     0          
O17A     O      0.776200000000     0.151300000000     0.413800000000     0          
O18A     O      0.677300000000     0.207800000000     0.284500000000     0          
C1A      C      0.837000000000     0.060100000000     0.818600000000     0          
C2A      C      0.780400000000     0.080000000000     0.762100000000     0          
C3A      C      0.721900000000     0.069800000000     0.746600000000     0          
H1A      H      0.719900000000     0.049700000000     0.773600000000     0          
C4A      C      0.666800000000     0.086300000000     0.695700000000     0          
C5A      C      0.672500000000     0.116000000000     0.656800000000     0          
H2A      H      0.636000000000     0.128500000000     0.620700000000     0          
C6A      C      0.727800000000     0.127200000000     0.669200000000     0          
C7A      C      0.782900000000     0.108700000000     0.723000000000     0          
H3A      H      0.821900000000     0.116400000000     0.731800000000     0          
C8A      C      0.734200000000     0.158600000000     0.628500000000     0          
O21A     O      0.787400000000     0.167100000000     0.641900000000     0          
N1A      N      0.612700000000     0.072600000000     0.687200000000     0          
N2A      N      0.559400000000     0.088600000000     0.638600000000     0          
C9A      C      0.488200000000     0.060900000000     0.811500000000     0          
C10A     C      0.486100000000     0.083500000000     0.753500000000     0          
C11A     C      0.526100000000     0.076800000000     0.728800000000     0          
H4A      H      0.556000000000     0.057600000000     0.750800000000     0          
C12A     C      0.522900000000     0.097900000000     0.671900000000     0          
C13A     C      0.474400000000     0.123100000000     0.634700000000     0          
H5A      H      0.470100000000     0.136300000000     0.594100000000     0          
C14A     C      0.431900000000     0.129400000000     0.656200000000     0          
C15A     C      0.435000000000     0.108800000000     0.712800000000     0          
H6A      H      0.404100000000     0.111400000000     0.724500000000     0          
C16A     C      0.383400000000     0.157200000000     0.616200000000     0          
O25A     O      0.342400000000     0.163400000000     0.633300000000     0          


