data_VIKSEQ.Zr_MOFs_Nov2018+3updates
_audit_creation_date              2021-02-03
_audit_creation_method            'Materials Studio'
_symmetry_space_group_name_H-M    'P1'
_symmetry_Int_Tables_number       1
_symmetry_cell_setting            triclinic
loop_
_symmetry_equiv_pos_as_xyz
  x,y,z
_cell_length_a                    32.8463
_cell_length_b                    32.8463
_cell_length_c                    32.8463
_cell_angle_alpha                 90.0000
_cell_angle_beta                  90.0000
_cell_angle_gamma                 90.0000
loop_
_atom_site_label
_atom_site_type_symbol
_atom_site_fract_x
_atom_site_fract_y
_atom_site_fract_z
_atom_site_U_iso_or_equiv
_atom_site_adp_type
_atom_site_occupancy
Zr1    Zr    0.72018   0.27816   0.30694   0.00000  Uiso   1.00
Zr2    Zr    0.73235   0.31762   0.20854   0.00000  Uiso   1.00
O3     O     0.75655   0.32426   0.27161   0.00000  Uiso   1.00
O4     O     0.70346   0.27741   0.24594   0.00000  Uiso   1.00
O5     O     0.56984   0.56733   0.41945   0.00000  Uiso   1.00
O6     O     0.56378   0.50265   0.39696   0.00000  Uiso   1.00
O7     O     0.36220   0.72367   0.23978   0.00000  Uiso   1.00
O8     O     0.34513   0.75945   0.18441   0.00000  Uiso   1.00
O9     O     0.74650   0.33150   0.14490   0.00000  Uiso   1.00
O10    O     0.68160   0.33563   0.31600   0.00000  Uiso   1.00
H11    H     0.71539   0.33563   0.31600   0.00000  Uiso   1.00
O12    O     0.70510   0.37212   0.22720   0.00000  Uiso   1.00
C13    C     0.41070   0.73260   0.19000   0.00000  Uiso   1.00
O14    O     0.73950   0.40176   0.28000   0.00000  Uiso   1.00
C15    C     0.57110   0.54070   0.39150   0.00000  Uiso   1.00
C16    C     0.58120   0.54980   0.34930   0.00000  Uiso   1.00
C17    C     0.36950   0.73930   0.20610   0.00000  Uiso   1.00
C18    C     0.57940   0.51980   0.31830   0.00000  Uiso   1.00
H19    H     0.56918   0.48753   0.32595   0.00000  Uiso   1.00
O20    O     0.79510   0.27970   0.12980   0.00000  Uiso   1.00
C21    C     0.48140   0.71750   0.20040   0.00000  Uiso   1.00
H22    H     0.50714   0.71136   0.22285   0.00000  Uiso   1.00
C23    C     0.58960   0.52820   0.27900   0.00000  Uiso   1.00
H24    H     0.58783   0.50328   0.25491   0.00000  Uiso   1.00
C25    C     0.69580   0.44260   0.23860   0.00000  Uiso   1.00
C26    C     0.48900   0.71720   0.15930   0.00000  Uiso   1.00
C27    C     0.41830   0.73520   0.14960   0.00000  Uiso   1.00
H28    H     0.39308   0.74480   0.12778   0.00000  Uiso   1.00
C29    C     0.65950   0.51600   0.21630   0.00000  Uiso   1.00
C30    C     0.44290   0.72510   0.21680   0.00000  Uiso   1.00
H31    H     0.43838   0.72507   0.25121   0.00000  Uiso   1.00
C32    C     0.60250   0.56780   0.26750   0.00000  Uiso   1.00
C33    C     0.70180   0.47650   0.26250   0.00000  Uiso   1.00
H34    H     0.72183   0.47448   0.29077   0.00000  Uiso   1.00
C35    C     0.59380   0.59080   0.33980   0.00000  Uiso   1.00
H36    H     0.59572   0.61463   0.36496   0.00000  Uiso   1.00
C37    C     0.45730   0.72610   0.13420   0.00000  Uiso   1.00
H38    H     0.46193   0.72632   0.09980   0.00000  Uiso   1.00
C39    C     0.58240   0.65390   0.14400   0.00000  Uiso   1.00
C40    C     0.68290   0.51280   0.25120   0.00000  Uiso   1.00
H41    H     0.68723   0.54041   0.27178   0.00000  Uiso   1.00
C42    C     0.65270   0.56620   0.16310   0.00000  Uiso   1.00
H43    H     0.67691   0.54790   0.14626   0.00000  Uiso   1.00
C44    C     0.54660   0.67300   0.16080   0.00000  Uiso   1.00
H45    H     0.53265   0.66091   0.19019   0.00000  Uiso   1.00
C46    C     0.60450   0.62220   0.16620   0.00000  Uiso   1.00
C47    C     0.52830   0.70490   0.14350   0.00000  Uiso   1.00
C48    C     0.63500   0.60060   0.14450   0.00000  Uiso   1.00
C49    C     0.64130   0.55370   0.20210   0.00000  Uiso   1.00
C50    C     0.61270   0.57730   0.22430   0.00000  Uiso   1.00
C51    C     0.60320   0.59810   0.29750   0.00000  Uiso   1.00
H52    H     0.61180   0.63001   0.28689   0.00000  Uiso   1.00
C53    C     0.59490   0.61050   0.20420   0.00000  Uiso   1.00
H54    H     0.57063   0.62948   0.22018   0.00000  Uiso   1.00
C55    C     0.71510   0.40370   0.24930   0.00000  Uiso   1.00
C56    C     0.65390   0.48190   0.19500   0.00000  Uiso   1.00
H57    H     0.63414   0.48231   0.16647   0.00000  Uiso   1.00
C58    C     0.67100   0.44480   0.20550   0.00000  Uiso   1.00
H59    H     0.66450   0.41632   0.18676   0.00000  Uiso   1.00
C60    C     0.77290   0.31630   0.12140   0.00000  Uiso   1.00
H61    H     0.78035   0.33187   0.09129   0.00000  Uiso   1.00
Zr62   Zr    0.77982   0.72184   0.80694   0.00000  Uiso   1.00
Zr63   Zr    0.76765   0.68238   0.70854   0.00000  Uiso   1.00
O64    O     0.74345   0.67574   0.77161   0.00000  Uiso   1.00
O65    O     0.79654   0.72259   0.74594   0.00000  Uiso   1.00
O66    O     0.93016   0.43267   0.91945   0.00000  Uiso   1.00
O67    O     0.93622   0.49735   0.89696   0.00000  Uiso   1.00
O68    O     0.13780   0.27633   0.73978   0.00000  Uiso   1.00
O69    O     0.15487   0.24055   0.68441   0.00000  Uiso   1.00
O70    O     0.75350   0.66850   0.64490   0.00000  Uiso   1.00
O71    O     0.81840   0.66437   0.81600   0.00000  Uiso   1.00
H72    H     0.78461   0.66437   0.81600   0.00000  Uiso   1.00
O73    O     0.79490   0.62788   0.72720   0.00000  Uiso   1.00
C74    C     0.08930   0.26740   0.69000   0.00000  Uiso   1.00
O75    O     0.76050   0.59824   0.78000   0.00000  Uiso   1.00
C76    C     0.92890   0.45930   0.89150   0.00000  Uiso   1.00
C77    C     0.91880   0.45020   0.84930   0.00000  Uiso   1.00
C78    C     0.13050   0.26070   0.70610   0.00000  Uiso   1.00
C79    C     0.92060   0.48020   0.81830   0.00000  Uiso   1.00
H80    H     0.93082   0.51247   0.82595   0.00000  Uiso   1.00
O81    O     0.70490   0.72030   0.62980   0.00000  Uiso   1.00
C82    C     0.01860   0.28250   0.70040   0.00000  Uiso   1.00
H83    H     0.99286   0.28864   0.72285   0.00000  Uiso   1.00
C84    C     0.91040   0.47180   0.77900   0.00000  Uiso   1.00
H85    H     0.91217   0.49672   0.75491   0.00000  Uiso   1.00
C86    C     0.80420   0.55740   0.73860   0.00000  Uiso   1.00
C87    C     0.01100   0.28280   0.65930   0.00000  Uiso   1.00
C88    C     0.08170   0.26480   0.64960   0.00000  Uiso   1.00
H89    H     0.10692   0.25520   0.62778   0.00000  Uiso   1.00
C90    C     0.84050   0.48400   0.71630   0.00000  Uiso   1.00
C91    C     0.05710   0.27490   0.71680   0.00000  Uiso   1.00
H92    H     0.06162   0.27493   0.75121   0.00000  Uiso   1.00
C93    C     0.89750   0.43220   0.76750   0.00000  Uiso   1.00
C94    C     0.79820   0.52350   0.76250   0.00000  Uiso   1.00
H95    H     0.77817   0.52552   0.79077   0.00000  Uiso   1.00
C96    C     0.90620   0.40920   0.83980   0.00000  Uiso   1.00
H97    H     0.90428   0.38537   0.86496   0.00000  Uiso   1.00
C98    C     0.04270   0.27390   0.63420   0.00000  Uiso   1.00
H99    H     0.03807   0.27368   0.59980   0.00000  Uiso   1.00
C100   C     0.91760   0.34610   0.64400   0.00000  Uiso   1.00
C101   C     0.81710   0.48720   0.75120   0.00000  Uiso   1.00
H102   H     0.81277   0.45959   0.77178   0.00000  Uiso   1.00
C103   C     0.84730   0.43380   0.66310   0.00000  Uiso   1.00
H104   H     0.82309   0.45210   0.64626   0.00000  Uiso   1.00
C105   C     0.95340   0.32700   0.66080   0.00000  Uiso   1.00
H106   H     0.96735   0.33909   0.69019   0.00000  Uiso   1.00
C107   C     0.89550   0.37780   0.66620   0.00000  Uiso   1.00
C108   C     0.97170   0.29510   0.64350   0.00000  Uiso   1.00
C109   C     0.86500   0.39940   0.64450   0.00000  Uiso   1.00
C110   C     0.85870   0.44630   0.70210   0.00000  Uiso   1.00
C111   C     0.88730   0.42270   0.72430   0.00000  Uiso   1.00
C112   C     0.89680   0.40190   0.79750   0.00000  Uiso   1.00
H113   H     0.88820   0.36999   0.78689   0.00000  Uiso   1.00
C114   C     0.90510   0.38950   0.70420   0.00000  Uiso   1.00
H115   H     0.92937   0.37052   0.72018   0.00000  Uiso   1.00
C116   C     0.78490   0.59630   0.74930   0.00000  Uiso   1.00
C117   C     0.84610   0.51810   0.69500   0.00000  Uiso   1.00
H118   H     0.86586   0.51769   0.66647   0.00000  Uiso   1.00
C119   C     0.82900   0.55520   0.70550   0.00000  Uiso   1.00
H120   H     0.83550   0.58368   0.68676   0.00000  Uiso   1.00
C121   C     0.72710   0.68370   0.62140   0.00000  Uiso   1.00
H122   H     0.71965   0.66813   0.59129   0.00000  Uiso   1.00
Zr123  Zr    0.27982   0.77816   0.19306   0.00000  Uiso   1.00
Zr124  Zr    0.26765   0.81762   0.29146   0.00000  Uiso   1.00
O125   O     0.24345   0.82426   0.22839   0.00000  Uiso   1.00
O126   O     0.29654   0.77741   0.25406   0.00000  Uiso   1.00
O127   O     0.43016   0.06733   0.08055   0.00000  Uiso   1.00
O128   O     0.43622   0.00265   0.10304   0.00000  Uiso   1.00
O129   O     0.63780   0.22367   0.26022   0.00000  Uiso   1.00
O130   O     0.65487   0.25945   0.31559   0.00000  Uiso   1.00
O131   O     0.25350   0.83150   0.35510   0.00000  Uiso   1.00
O132   O     0.31840   0.83563   0.18400   0.00000  Uiso   1.00
H133   H     0.28461   0.83563   0.18400   0.00000  Uiso   1.00
O134   O     0.29490   0.87212   0.27280   0.00000  Uiso   1.00
C135   C     0.58930   0.23260   0.31000   0.00000  Uiso   1.00
O136   O     0.26050   0.90176   0.22000   0.00000  Uiso   1.00
C137   C     0.42890   0.04070   0.10850   0.00000  Uiso   1.00
C138   C     0.41880   0.04980   0.15070   0.00000  Uiso   1.00
C139   C     0.63050   0.23930   0.29390   0.00000  Uiso   1.00
C140   C     0.42060   0.01980   0.18170   0.00000  Uiso   1.00
H141   H     0.43082   0.98753   0.17405   0.00000  Uiso   1.00
O142   O     0.20490   0.77970   0.37020   0.00000  Uiso   1.00
C143   C     0.51860   0.21750   0.29960   0.00000  Uiso   1.00
H144   H     0.49286   0.21136   0.27715   0.00000  Uiso   1.00
C145   C     0.41040   0.02820   0.22100   0.00000  Uiso   1.00
H146   H     0.41217   0.00328   0.24509   0.00000  Uiso   1.00
C147   C     0.30420   0.94260   0.26140   0.00000  Uiso   1.00
C148   C     0.51100   0.21720   0.34070   0.00000  Uiso   1.00
C149   C     0.58170   0.23520   0.35040   0.00000  Uiso   1.00
H150   H     0.60692   0.24480   0.37222   0.00000  Uiso   1.00
C151   C     0.34050   0.01600   0.28370   0.00000  Uiso   1.00
C152   C     0.55710   0.22510   0.28320   0.00000  Uiso   1.00
H153   H     0.56162   0.22507   0.24879   0.00000  Uiso   1.00
C154   C     0.39750   0.06780   0.23250   0.00000  Uiso   1.00
C155   C     0.29820   0.97650   0.23750   0.00000  Uiso   1.00
H156   H     0.27817   0.97448   0.20923   0.00000  Uiso   1.00
C157   C     0.40620   0.09080   0.16020   0.00000  Uiso   1.00
H158   H     0.40428   0.11463   0.13504   0.00000  Uiso   1.00
C159   C     0.54270   0.22610   0.36580   0.00000  Uiso   1.00
H160   H     0.53807   0.22632   0.40020   0.00000  Uiso   1.00
C161   C     0.41760   0.15390   0.35600   0.00000  Uiso   1.00
C162   C     0.31710   0.01280   0.24880   0.00000  Uiso   1.00
H163   H     0.31277   0.04041   0.22822   0.00000  Uiso   1.00
C164   C     0.34730   0.06620   0.33690   0.00000  Uiso   1.00
H165   H     0.32309   0.04790   0.35374   0.00000  Uiso   1.00
C166   C     0.45340   0.17300   0.33920   0.00000  Uiso   1.00
H167   H     0.46735   0.16091   0.30981   0.00000  Uiso   1.00
C168   C     0.39550   0.12220   0.33380   0.00000  Uiso   1.00
C169   C     0.47170   0.20490   0.35650   0.00000  Uiso   1.00
C170   C     0.36500   0.10060   0.35550   0.00000  Uiso   1.00
C171   C     0.35870   0.05370   0.29790   0.00000  Uiso   1.00
C172   C     0.38730   0.07730   0.27570   0.00000  Uiso   1.00
C173   C     0.39680   0.09810   0.20250   0.00000  Uiso   1.00
H174   H     0.38820   0.13001   0.21311   0.00000  Uiso   1.00
C175   C     0.40510   0.11050   0.29580   0.00000  Uiso   1.00
H176   H     0.42937   0.12948   0.27982   0.00000  Uiso   1.00
C177   C     0.28490   0.90370   0.25070   0.00000  Uiso   1.00
C178   C     0.34610   0.98190   0.30500   0.00000  Uiso   1.00
H179   H     0.36586   0.98231   0.33353   0.00000  Uiso   1.00
C180   C     0.32900   0.94480   0.29450   0.00000  Uiso   1.00
H181   H     0.33550   0.91632   0.31324   0.00000  Uiso   1.00
C182   C     0.22710   0.81630   0.37860   0.00000  Uiso   1.00
H183   H     0.21965   0.83187   0.40871   0.00000  Uiso   1.00
Zr184  Zr    0.22018   0.22184   0.69306   0.00000  Uiso   1.00
Zr185  Zr    0.23235   0.18238   0.79146   0.00000  Uiso   1.00
O186   O     0.25655   0.17574   0.72839   0.00000  Uiso   1.00
O187   O     0.20346   0.22259   0.75406   0.00000  Uiso   1.00
O188   O     0.06984   0.93267   0.58055   0.00000  Uiso   1.00
O189   O     0.06378   0.99735   0.60304   0.00000  Uiso   1.00
O190   O     0.86220   0.77633   0.76022   0.00000  Uiso   1.00
O191   O     0.84513   0.74055   0.81559   0.00000  Uiso   1.00
O192   O     0.24650   0.16850   0.85510   0.00000  Uiso   1.00
O193   O     0.18160   0.16437   0.68400   0.00000  Uiso   1.00
H194   H     0.21539   0.16437   0.68400   0.00000  Uiso   1.00
O195   O     0.20510   0.12788   0.77280   0.00000  Uiso   1.00
C196   C     0.91070   0.76740   0.81000   0.00000  Uiso   1.00
O197   O     0.23950   0.09824   0.72000   0.00000  Uiso   1.00
C198   C     0.07110   0.95930   0.60850   0.00000  Uiso   1.00
C199   C     0.08120   0.95020   0.65070   0.00000  Uiso   1.00
C200   C     0.86950   0.76070   0.79390   0.00000  Uiso   1.00
C201   C     0.07940   0.98020   0.68170   0.00000  Uiso   1.00
H202   H     0.06918   0.01247   0.67405   0.00000  Uiso   1.00
O203   O     0.29510   0.22030   0.87020   0.00000  Uiso   1.00
C204   C     0.98140   0.78250   0.79960   0.00000  Uiso   1.00
H205   H     0.00714   0.78864   0.77715   0.00000  Uiso   1.00
C206   C     0.08960   0.97180   0.72100   0.00000  Uiso   1.00
H207   H     0.08783   0.99672   0.74509   0.00000  Uiso   1.00
C208   C     0.19580   0.05740   0.76140   0.00000  Uiso   1.00
C209   C     0.98900   0.78280   0.84070   0.00000  Uiso   1.00
C210   C     0.91830   0.76480   0.85040   0.00000  Uiso   1.00
H211   H     0.89308   0.75520   0.87222   0.00000  Uiso   1.00
C212   C     0.15950   0.98400   0.78370   0.00000  Uiso   1.00
C213   C     0.94290   0.77490   0.78320   0.00000  Uiso   1.00
H214   H     0.93838   0.77493   0.74879   0.00000  Uiso   1.00
C215   C     0.10250   0.93220   0.73250   0.00000  Uiso   1.00
C216   C     0.20180   0.02350   0.73750   0.00000  Uiso   1.00
H217   H     0.22183   0.02552   0.70923   0.00000  Uiso   1.00
C218   C     0.09380   0.90920   0.66020   0.00000  Uiso   1.00
H219   H     0.09572   0.88537   0.63504   0.00000  Uiso   1.00
C220   C     0.95730   0.77390   0.86580   0.00000  Uiso   1.00
H221   H     0.96193   0.77368   0.90020   0.00000  Uiso   1.00
C222   C     0.08240   0.84610   0.85600   0.00000  Uiso   1.00
C223   C     0.18290   0.98720   0.74880   0.00000  Uiso   1.00
H224   H     0.18723   0.95959   0.72822   0.00000  Uiso   1.00
C225   C     0.15270   0.93380   0.83690   0.00000  Uiso   1.00
H226   H     0.17691   0.95210   0.85374   0.00000  Uiso   1.00
C227   C     0.04660   0.82700   0.83920   0.00000  Uiso   1.00
H228   H     0.03265   0.83909   0.80981   0.00000  Uiso   1.00
C229   C     0.10450   0.87780   0.83380   0.00000  Uiso   1.00
C230   C     0.02830   0.79510   0.85650   0.00000  Uiso   1.00
C231   C     0.13500   0.89940   0.85550   0.00000  Uiso   1.00
C232   C     0.14130   0.94630   0.79790   0.00000  Uiso   1.00
C233   C     0.11270   0.92270   0.77570   0.00000  Uiso   1.00
C234   C     0.10320   0.90190   0.70250   0.00000  Uiso   1.00
H235   H     0.11180   0.86999   0.71311   0.00000  Uiso   1.00
C236   C     0.09490   0.88950   0.79580   0.00000  Uiso   1.00
H237   H     0.07063   0.87052   0.77982   0.00000  Uiso   1.00
C238   C     0.21510   0.09630   0.75070   0.00000  Uiso   1.00
C239   C     0.15390   0.01810   0.80500   0.00000  Uiso   1.00
H240   H     0.13414   0.01769   0.83353   0.00000  Uiso   1.00
C241   C     0.17100   0.05520   0.79450   0.00000  Uiso   1.00
H242   H     0.16450   0.08368   0.81324   0.00000  Uiso   1.00
C243   C     0.27290   0.18370   0.87860   0.00000  Uiso   1.00
H244   H     0.28035   0.16813   0.90871   0.00000  Uiso   1.00
Zr245  Zr    0.30694   0.72018   0.27816   0.00000  Uiso   1.00
Zr246  Zr    0.20854   0.73235   0.31762   0.00000  Uiso   1.00
O247   O     0.27161   0.75655   0.32426   0.00000  Uiso   1.00
O248   O     0.24594   0.70346   0.27741   0.00000  Uiso   1.00
O249   O     0.41945   0.56984   0.56733   0.00000  Uiso   1.00
O250   O     0.39696   0.56378   0.50265   0.00000  Uiso   1.00
O251   O     0.23978   0.36220   0.72367   0.00000  Uiso   1.00
O252   O     0.18441   0.34513   0.75945   0.00000  Uiso   1.00
O253   O     0.14490   0.74650   0.33150   0.00000  Uiso   1.00
O254   O     0.31600   0.68160   0.33563   0.00000  Uiso   1.00
H255   H     0.31600   0.71539   0.33563   0.00000  Uiso   1.00
O256   O     0.22720   0.70510   0.37212   0.00000  Uiso   1.00
C257   C     0.19000   0.41070   0.73260   0.00000  Uiso   1.00
O258   O     0.28000   0.73950   0.40176   0.00000  Uiso   1.00
C259   C     0.39150   0.57110   0.54070   0.00000  Uiso   1.00
C260   C     0.34930   0.58120   0.54980   0.00000  Uiso   1.00
C261   C     0.20610   0.36950   0.73930   0.00000  Uiso   1.00
C262   C     0.31830   0.57940   0.51980   0.00000  Uiso   1.00
H263   H     0.32595   0.56918   0.48753   0.00000  Uiso   1.00
O264   O     0.12980   0.79510   0.27970   0.00000  Uiso   1.00
C265   C     0.20040   0.48140   0.71750   0.00000  Uiso   1.00
H266   H     0.22285   0.50714   0.71136   0.00000  Uiso   1.00
C267   C     0.27900   0.58960   0.52820   0.00000  Uiso   1.00
H268   H     0.25491   0.58783   0.50328   0.00000  Uiso   1.00
C269   C     0.23860   0.69580   0.44260   0.00000  Uiso   1.00
C270   C     0.15930   0.48900   0.71720   0.00000  Uiso   1.00
C271   C     0.14960   0.41830   0.73520   0.00000  Uiso   1.00
H272   H     0.12778   0.39308   0.74480   0.00000  Uiso   1.00
C273   C     0.21630   0.65950   0.51600   0.00000  Uiso   1.00
C274   C     0.21680   0.44290   0.72510   0.00000  Uiso   1.00
H275   H     0.25121   0.43838   0.72507   0.00000  Uiso   1.00
C276   C     0.26750   0.60250   0.56780   0.00000  Uiso   1.00
C277   C     0.26250   0.70180   0.47650   0.00000  Uiso   1.00
H278   H     0.29077   0.72183   0.47448   0.00000  Uiso   1.00
C279   C     0.33980   0.59380   0.59080   0.00000  Uiso   1.00
H280   H     0.36496   0.59572   0.61463   0.00000  Uiso   1.00
C281   C     0.13420   0.45730   0.72610   0.00000  Uiso   1.00
H282   H     0.09980   0.46193   0.72632   0.00000  Uiso   1.00
C283   C     0.14400   0.58240   0.65390   0.00000  Uiso   1.00
C284   C     0.25120   0.68290   0.51280   0.00000  Uiso   1.00
H285   H     0.27178   0.68723   0.54041   0.00000  Uiso   1.00
C286   C     0.16310   0.65270   0.56620   0.00000  Uiso   1.00
H287   H     0.14626   0.67691   0.54790   0.00000  Uiso   1.00
C288   C     0.16080   0.54660   0.67300   0.00000  Uiso   1.00
H289   H     0.19019   0.53265   0.66091   0.00000  Uiso   1.00
C290   C     0.16620   0.60450   0.62220   0.00000  Uiso   1.00
C291   C     0.14350   0.52830   0.70490   0.00000  Uiso   1.00
C292   C     0.14450   0.63500   0.60060   0.00000  Uiso   1.00
C293   C     0.20210   0.64130   0.55370   0.00000  Uiso   1.00
C294   C     0.22430   0.61270   0.57730   0.00000  Uiso   1.00
C295   C     0.29750   0.60320   0.59810   0.00000  Uiso   1.00
H296   H     0.28689   0.61180   0.63001   0.00000  Uiso   1.00
C297   C     0.20420   0.59490   0.61050   0.00000  Uiso   1.00
H298   H     0.22018   0.57063   0.62948   0.00000  Uiso   1.00
C299   C     0.24930   0.71510   0.40370   0.00000  Uiso   1.00
C300   C     0.19500   0.65390   0.48190   0.00000  Uiso   1.00
H301   H     0.16647   0.63414   0.48231   0.00000  Uiso   1.00
C302   C     0.20550   0.67100   0.44480   0.00000  Uiso   1.00
H303   H     0.18676   0.66450   0.41632   0.00000  Uiso   1.00
C304   C     0.12140   0.77290   0.31630   0.00000  Uiso   1.00
H305   H     0.09129   0.78035   0.33187   0.00000  Uiso   1.00
Zr306  Zr    0.80694   0.77982   0.72184   0.00000  Uiso   1.00
Zr307  Zr    0.70854   0.76765   0.68238   0.00000  Uiso   1.00
O308   O     0.77161   0.74345   0.67574   0.00000  Uiso   1.00
O309   O     0.74594   0.79654   0.72259   0.00000  Uiso   1.00
O310   O     0.91945   0.93016   0.43267   0.00000  Uiso   1.00
O311   O     0.89696   0.93622   0.49735   0.00000  Uiso   1.00
O312   O     0.73978   0.13780   0.27633   0.00000  Uiso   1.00
O313   O     0.68441   0.15487   0.24055   0.00000  Uiso   1.00
O314   O     0.64490   0.75350   0.66850   0.00000  Uiso   1.00
O315   O     0.81600   0.81840   0.66437   0.00000  Uiso   1.00
H316   H     0.81600   0.78461   0.66437   0.00000  Uiso   1.00
O317   O     0.72720   0.79490   0.62788   0.00000  Uiso   1.00
C318   C     0.69000   0.08930   0.26740   0.00000  Uiso   1.00
O319   O     0.78000   0.76050   0.59824   0.00000  Uiso   1.00
C320   C     0.89150   0.92890   0.45930   0.00000  Uiso   1.00
C321   C     0.84930   0.91880   0.45020   0.00000  Uiso   1.00
C322   C     0.70610   0.13050   0.26070   0.00000  Uiso   1.00
C323   C     0.81830   0.92060   0.48020   0.00000  Uiso   1.00
H324   H     0.82595   0.93082   0.51247   0.00000  Uiso   1.00
O325   O     0.62980   0.70490   0.72030   0.00000  Uiso   1.00
C326   C     0.70040   0.01860   0.28250   0.00000  Uiso   1.00
H327   H     0.72285   0.99286   0.28864   0.00000  Uiso   1.00
C328   C     0.77900   0.91040   0.47180   0.00000  Uiso   1.00
H329   H     0.75491   0.91217   0.49672   0.00000  Uiso   1.00
C330   C     0.73860   0.80420   0.55740   0.00000  Uiso   1.00
C331   C     0.65930   0.01100   0.28280   0.00000  Uiso   1.00
C332   C     0.64960   0.08170   0.26480   0.00000  Uiso   1.00
H333   H     0.62778   0.10692   0.25520   0.00000  Uiso   1.00
C334   C     0.71630   0.84050   0.48400   0.00000  Uiso   1.00
C335   C     0.71680   0.05710   0.27490   0.00000  Uiso   1.00
H336   H     0.75121   0.06162   0.27493   0.00000  Uiso   1.00
C337   C     0.76750   0.89750   0.43220   0.00000  Uiso   1.00
C338   C     0.76250   0.79820   0.52350   0.00000  Uiso   1.00
H339   H     0.79077   0.77817   0.52552   0.00000  Uiso   1.00
C340   C     0.83980   0.90620   0.40920   0.00000  Uiso   1.00
H341   H     0.86496   0.90428   0.38537   0.00000  Uiso   1.00
C342   C     0.63420   0.04270   0.27390   0.00000  Uiso   1.00
H343   H     0.59980   0.03807   0.27368   0.00000  Uiso   1.00
C344   C     0.64400   0.91760   0.34610   0.00000  Uiso   1.00
C345   C     0.75120   0.81710   0.48720   0.00000  Uiso   1.00
H346   H     0.77178   0.81277   0.45959   0.00000  Uiso   1.00
C347   C     0.66310   0.84730   0.43380   0.00000  Uiso   1.00
H348   H     0.64626   0.82309   0.45210   0.00000  Uiso   1.00
C349   C     0.66080   0.95340   0.32700   0.00000  Uiso   1.00
H350   H     0.69019   0.96735   0.33909   0.00000  Uiso   1.00
C351   C     0.66620   0.89550   0.37780   0.00000  Uiso   1.00
C352   C     0.64350   0.97170   0.29510   0.00000  Uiso   1.00
C353   C     0.64450   0.86500   0.39940   0.00000  Uiso   1.00
C354   C     0.70210   0.85870   0.44630   0.00000  Uiso   1.00
C355   C     0.72430   0.88730   0.42270   0.00000  Uiso   1.00
C356   C     0.79750   0.89680   0.40190   0.00000  Uiso   1.00
H357   H     0.78689   0.88820   0.36999   0.00000  Uiso   1.00
C358   C     0.70420   0.90510   0.38950   0.00000  Uiso   1.00
H359   H     0.72018   0.92937   0.37052   0.00000  Uiso   1.00
C360   C     0.74930   0.78490   0.59630   0.00000  Uiso   1.00
C361   C     0.69500   0.84610   0.51810   0.00000  Uiso   1.00
H362   H     0.66647   0.86586   0.51769   0.00000  Uiso   1.00
C363   C     0.70550   0.82900   0.55520   0.00000  Uiso   1.00
H364   H     0.68676   0.83550   0.58368   0.00000  Uiso   1.00
C365   C     0.62140   0.72710   0.68370   0.00000  Uiso   1.00
H366   H     0.59129   0.71965   0.66813   0.00000  Uiso   1.00
Zr367  Zr    0.19306   0.27982   0.77816   0.00000  Uiso   1.00
Zr368  Zr    0.29146   0.26765   0.81762   0.00000  Uiso   1.00
O369   O     0.22839   0.24345   0.82426   0.00000  Uiso   1.00
O370   O     0.25406   0.29654   0.77741   0.00000  Uiso   1.00
O371   O     0.08055   0.43016   0.06733   0.00000  Uiso   1.00
O372   O     0.10304   0.43622   0.00265   0.00000  Uiso   1.00
O373   O     0.26022   0.63780   0.22367   0.00000  Uiso   1.00
O374   O     0.31559   0.65487   0.25945   0.00000  Uiso   1.00
O375   O     0.35510   0.25350   0.83150   0.00000  Uiso   1.00
O376   O     0.18400   0.31840   0.83563   0.00000  Uiso   1.00
H377   H     0.18400   0.28461   0.83563   0.00000  Uiso   1.00
O378   O     0.27280   0.29490   0.87212   0.00000  Uiso   1.00
C379   C     0.31000   0.58930   0.23260   0.00000  Uiso   1.00
O380   O     0.22000   0.26050   0.90176   0.00000  Uiso   1.00
C381   C     0.10850   0.42890   0.04070   0.00000  Uiso   1.00
C382   C     0.15070   0.41880   0.04980   0.00000  Uiso   1.00
C383   C     0.29390   0.63050   0.23930   0.00000  Uiso   1.00
C384   C     0.18170   0.42060   0.01980   0.00000  Uiso   1.00
H385   H     0.17405   0.43082   0.98753   0.00000  Uiso   1.00
O386   O     0.37020   0.20490   0.77970   0.00000  Uiso   1.00
C387   C     0.29960   0.51860   0.21750   0.00000  Uiso   1.00
H388   H     0.27715   0.49286   0.21136   0.00000  Uiso   1.00
C389   C     0.22100   0.41040   0.02820   0.00000  Uiso   1.00
H390   H     0.24509   0.41217   0.00328   0.00000  Uiso   1.00
C391   C     0.26140   0.30420   0.94260   0.00000  Uiso   1.00
C392   C     0.34070   0.51100   0.21720   0.00000  Uiso   1.00
C393   C     0.35040   0.58170   0.23520   0.00000  Uiso   1.00
H394   H     0.37222   0.60692   0.24480   0.00000  Uiso   1.00
C395   C     0.28370   0.34050   0.01600   0.00000  Uiso   1.00
C396   C     0.28320   0.55710   0.22510   0.00000  Uiso   1.00
H397   H     0.24879   0.56162   0.22507   0.00000  Uiso   1.00
C398   C     0.23250   0.39750   0.06780   0.00000  Uiso   1.00
C399   C     0.23750   0.29820   0.97650   0.00000  Uiso   1.00
H400   H     0.20923   0.27817   0.97448   0.00000  Uiso   1.00
C401   C     0.16020   0.40620   0.09080   0.00000  Uiso   1.00
H402   H     0.13504   0.40428   0.11463   0.00000  Uiso   1.00
C403   C     0.36580   0.54270   0.22610   0.00000  Uiso   1.00
H404   H     0.40020   0.53807   0.22632   0.00000  Uiso   1.00
C405   C     0.35600   0.41760   0.15390   0.00000  Uiso   1.00
C406   C     0.24880   0.31710   0.01280   0.00000  Uiso   1.00
H407   H     0.22822   0.31277   0.04041   0.00000  Uiso   1.00
C408   C     0.33690   0.34730   0.06620   0.00000  Uiso   1.00
H409   H     0.35374   0.32309   0.04790   0.00000  Uiso   1.00
C410   C     0.33920   0.45340   0.17300   0.00000  Uiso   1.00
H411   H     0.30981   0.46735   0.16091   0.00000  Uiso   1.00
C412   C     0.33380   0.39550   0.12220   0.00000  Uiso   1.00
C413   C     0.35650   0.47170   0.20490   0.00000  Uiso   1.00
C414   C     0.35550   0.36500   0.10060   0.00000  Uiso   1.00
C415   C     0.29790   0.35870   0.05370   0.00000  Uiso   1.00
C416   C     0.27570   0.38730   0.07730   0.00000  Uiso   1.00
C417   C     0.20250   0.39680   0.09810   0.00000  Uiso   1.00
H418   H     0.21311   0.38820   0.13001   0.00000  Uiso   1.00
C419   C     0.29580   0.40510   0.11050   0.00000  Uiso   1.00
H420   H     0.27982   0.42937   0.12948   0.00000  Uiso   1.00
C421   C     0.25070   0.28490   0.90370   0.00000  Uiso   1.00
C422   C     0.30500   0.34610   0.98190   0.00000  Uiso   1.00
H423   H     0.33353   0.36586   0.98231   0.00000  Uiso   1.00
C424   C     0.29450   0.32900   0.94480   0.00000  Uiso   1.00
H425   H     0.31324   0.33550   0.91632   0.00000  Uiso   1.00
C426   C     0.37860   0.22710   0.81630   0.00000  Uiso   1.00
H427   H     0.40871   0.21965   0.83187   0.00000  Uiso   1.00
Zr428  Zr    0.69306   0.22018   0.22184   0.00000  Uiso   1.00
Zr429  Zr    0.79146   0.23235   0.18238   0.00000  Uiso   1.00
O430   O     0.72839   0.25655   0.17574   0.00000  Uiso   1.00
O431   O     0.75406   0.20346   0.22259   0.00000  Uiso   1.00
O432   O     0.58055   0.06984   0.93267   0.00000  Uiso   1.00
O433   O     0.60304   0.06378   0.99735   0.00000  Uiso   1.00
O434   O     0.76022   0.86220   0.77633   0.00000  Uiso   1.00
O435   O     0.81559   0.84513   0.74055   0.00000  Uiso   1.00
O436   O     0.85510   0.24650   0.16850   0.00000  Uiso   1.00
O437   O     0.68400   0.18160   0.16437   0.00000  Uiso   1.00
H438   H     0.68400   0.21539   0.16437   0.00000  Uiso   1.00
O439   O     0.77280   0.20510   0.12788   0.00000  Uiso   1.00
C440   C     0.81000   0.91070   0.76740   0.00000  Uiso   1.00
O441   O     0.72000   0.23950   0.09824   0.00000  Uiso   1.00
C442   C     0.60850   0.07110   0.95930   0.00000  Uiso   1.00
C443   C     0.65070   0.08120   0.95020   0.00000  Uiso   1.00
C444   C     0.79390   0.86950   0.76070   0.00000  Uiso   1.00
C445   C     0.68170   0.07940   0.98020   0.00000  Uiso   1.00
H446   H     0.67405   0.06918   0.01247   0.00000  Uiso   1.00
O447   O     0.87020   0.29510   0.22030   0.00000  Uiso   1.00
C448   C     0.79960   0.98140   0.78250   0.00000  Uiso   1.00
H449   H     0.77715   0.00714   0.78864   0.00000  Uiso   1.00
C450   C     0.72100   0.08960   0.97180   0.00000  Uiso   1.00
H451   H     0.74509   0.08783   0.99672   0.00000  Uiso   1.00
C452   C     0.76140   0.19580   0.05740   0.00000  Uiso   1.00
C453   C     0.84070   0.98900   0.78280   0.00000  Uiso   1.00
C454   C     0.85040   0.91830   0.76480   0.00000  Uiso   1.00
H455   H     0.87222   0.89308   0.75520   0.00000  Uiso   1.00
C456   C     0.78370   0.15950   0.98400   0.00000  Uiso   1.00
C457   C     0.78320   0.94290   0.77490   0.00000  Uiso   1.00
H458   H     0.74879   0.93838   0.77493   0.00000  Uiso   1.00
C459   C     0.73250   0.10250   0.93220   0.00000  Uiso   1.00
C460   C     0.73750   0.20180   0.02350   0.00000  Uiso   1.00
H461   H     0.70923   0.22183   0.02552   0.00000  Uiso   1.00
C462   C     0.66020   0.09380   0.90920   0.00000  Uiso   1.00
H463   H     0.63504   0.09572   0.88537   0.00000  Uiso   1.00
C464   C     0.86580   0.95730   0.77390   0.00000  Uiso   1.00
H465   H     0.90020   0.96193   0.77368   0.00000  Uiso   1.00
C466   C     0.85600   0.08240   0.84610   0.00000  Uiso   1.00
C467   C     0.74880   0.18290   0.98720   0.00000  Uiso   1.00
H468   H     0.72822   0.18723   0.95959   0.00000  Uiso   1.00
C469   C     0.83690   0.15270   0.93380   0.00000  Uiso   1.00
H470   H     0.85374   0.17691   0.95210   0.00000  Uiso   1.00
C471   C     0.83920   0.04660   0.82700   0.00000  Uiso   1.00
H472   H     0.80981   0.03265   0.83909   0.00000  Uiso   1.00
C473   C     0.83380   0.10450   0.87780   0.00000  Uiso   1.00
C474   C     0.85650   0.02830   0.79510   0.00000  Uiso   1.00
C475   C     0.85550   0.13500   0.89940   0.00000  Uiso   1.00
C476   C     0.79790   0.14130   0.94630   0.00000  Uiso   1.00
C477   C     0.77570   0.11270   0.92270   0.00000  Uiso   1.00
C478   C     0.70250   0.10320   0.90190   0.00000  Uiso   1.00
H479   H     0.71311   0.11180   0.86999   0.00000  Uiso   1.00
C480   C     0.79580   0.09490   0.88950   0.00000  Uiso   1.00
H481   H     0.77982   0.07063   0.87052   0.00000  Uiso   1.00
C482   C     0.75070   0.21510   0.09630   0.00000  Uiso   1.00
C483   C     0.80500   0.15390   0.01810   0.00000  Uiso   1.00
H484   H     0.83353   0.13414   0.01769   0.00000  Uiso   1.00
C485   C     0.79450   0.17100   0.05520   0.00000  Uiso   1.00
H486   H     0.81324   0.16450   0.08368   0.00000  Uiso   1.00
C487   C     0.87860   0.27290   0.18370   0.00000  Uiso   1.00
H488   H     0.90871   0.28035   0.16813   0.00000  Uiso   1.00
Zr489  Zr    0.27816   0.30694   0.72018   0.00000  Uiso   1.00
Zr490  Zr    0.31762   0.20854   0.73235   0.00000  Uiso   1.00
O491   O     0.32426   0.27161   0.75655   0.00000  Uiso   1.00
O492   O     0.27741   0.24594   0.70346   0.00000  Uiso   1.00
O493   O     0.56733   0.41945   0.56984   0.00000  Uiso   1.00
O494   O     0.50265   0.39696   0.56378   0.00000  Uiso   1.00
O495   O     0.72367   0.23978   0.36220   0.00000  Uiso   1.00
O496   O     0.75945   0.18441   0.34513   0.00000  Uiso   1.00
O497   O     0.33150   0.14490   0.74650   0.00000  Uiso   1.00
O498   O     0.33563   0.31600   0.68160   0.00000  Uiso   1.00
H499   H     0.33563   0.31600   0.71539   0.00000  Uiso   1.00
O500   O     0.37212   0.22720   0.70510   0.00000  Uiso   1.00
C501   C     0.73260   0.19000   0.41070   0.00000  Uiso   1.00
O502   O     0.40176   0.28000   0.73950   0.00000  Uiso   1.00
C503   C     0.54070   0.39150   0.57110   0.00000  Uiso   1.00
C504   C     0.54980   0.34930   0.58120   0.00000  Uiso   1.00
C505   C     0.73930   0.20610   0.36950   0.00000  Uiso   1.00
C506   C     0.51980   0.31830   0.57940   0.00000  Uiso   1.00
H507   H     0.48753   0.32595   0.56918   0.00000  Uiso   1.00
O508   O     0.27970   0.12980   0.79510   0.00000  Uiso   1.00
C509   C     0.71750   0.20040   0.48140   0.00000  Uiso   1.00
H510   H     0.71136   0.22285   0.50714   0.00000  Uiso   1.00
C511   C     0.52820   0.27900   0.58960   0.00000  Uiso   1.00
H512   H     0.50328   0.25491   0.58783   0.00000  Uiso   1.00
C513   C     0.44260   0.23860   0.69580   0.00000  Uiso   1.00
C514   C     0.71720   0.15930   0.48900   0.00000  Uiso   1.00
C515   C     0.73520   0.14960   0.41830   0.00000  Uiso   1.00
H516   H     0.74480   0.12778   0.39308   0.00000  Uiso   1.00
C517   C     0.51600   0.21630   0.65950   0.00000  Uiso   1.00
C518   C     0.72510   0.21680   0.44290   0.00000  Uiso   1.00
H519   H     0.72507   0.25121   0.43838   0.00000  Uiso   1.00
C520   C     0.56780   0.26750   0.60250   0.00000  Uiso   1.00
C521   C     0.47650   0.26250   0.70180   0.00000  Uiso   1.00
H522   H     0.47448   0.29077   0.72183   0.00000  Uiso   1.00
C523   C     0.59080   0.33980   0.59380   0.00000  Uiso   1.00
H524   H     0.61463   0.36496   0.59572   0.00000  Uiso   1.00
C525   C     0.72610   0.13420   0.45730   0.00000  Uiso   1.00
H526   H     0.72632   0.09980   0.46193   0.00000  Uiso   1.00
C527   C     0.65390   0.14400   0.58240   0.00000  Uiso   1.00
C528   C     0.51280   0.25120   0.68290   0.00000  Uiso   1.00
H529   H     0.54041   0.27178   0.68723   0.00000  Uiso   1.00
C530   C     0.56620   0.16310   0.65270   0.00000  Uiso   1.00
H531   H     0.54790   0.14626   0.67691   0.00000  Uiso   1.00
C532   C     0.67300   0.16080   0.54660   0.00000  Uiso   1.00
H533   H     0.66091   0.19019   0.53265   0.00000  Uiso   1.00
C534   C     0.62220   0.16620   0.60450   0.00000  Uiso   1.00
C535   C     0.70490   0.14350   0.52830   0.00000  Uiso   1.00
C536   C     0.60060   0.14450   0.63500   0.00000  Uiso   1.00
C537   C     0.55370   0.20210   0.64130   0.00000  Uiso   1.00
C538   C     0.57730   0.22430   0.61270   0.00000  Uiso   1.00
C539   C     0.59810   0.29750   0.60320   0.00000  Uiso   1.00
H540   H     0.63001   0.28689   0.61180   0.00000  Uiso   1.00
C541   C     0.61050   0.20420   0.59490   0.00000  Uiso   1.00
H542   H     0.62948   0.22018   0.57063   0.00000  Uiso   1.00
C543   C     0.40370   0.24930   0.71510   0.00000  Uiso   1.00
C544   C     0.48190   0.19500   0.65390   0.00000  Uiso   1.00
H545   H     0.48231   0.16647   0.63414   0.00000  Uiso   1.00
C546   C     0.44480   0.20550   0.67100   0.00000  Uiso   1.00
H547   H     0.41632   0.18676   0.66450   0.00000  Uiso   1.00
C548   C     0.31630   0.12140   0.77290   0.00000  Uiso   1.00
H549   H     0.33187   0.09129   0.78035   0.00000  Uiso   1.00
Zr550  Zr    0.72184   0.80694   0.77982   0.00000  Uiso   1.00
Zr551  Zr    0.68238   0.70854   0.76765   0.00000  Uiso   1.00
O552   O     0.67574   0.77161   0.74345   0.00000  Uiso   1.00
O553   O     0.72259   0.74594   0.79654   0.00000  Uiso   1.00
O554   O     0.43267   0.91945   0.93016   0.00000  Uiso   1.00
O555   O     0.49735   0.89696   0.93622   0.00000  Uiso   1.00
O556   O     0.27633   0.73978   0.13780   0.00000  Uiso   1.00
O557   O     0.24055   0.68441   0.15487   0.00000  Uiso   1.00
O558   O     0.66850   0.64490   0.75350   0.00000  Uiso   1.00
O559   O     0.66437   0.81600   0.81840   0.00000  Uiso   1.00
H560   H     0.66437   0.81600   0.78461   0.00000  Uiso   1.00
O561   O     0.62788   0.72720   0.79490   0.00000  Uiso   1.00
C562   C     0.26740   0.69000   0.08930   0.00000  Uiso   1.00
O563   O     0.59824   0.78000   0.76050   0.00000  Uiso   1.00
C564   C     0.45930   0.89150   0.92890   0.00000  Uiso   1.00
C565   C     0.45020   0.84930   0.91880   0.00000  Uiso   1.00
C566   C     0.26070   0.70610   0.13050   0.00000  Uiso   1.00
C567   C     0.48020   0.81830   0.92060   0.00000  Uiso   1.00
H568   H     0.51247   0.82595   0.93082   0.00000  Uiso   1.00
O569   O     0.72030   0.62980   0.70490   0.00000  Uiso   1.00
C570   C     0.28250   0.70040   0.01860   0.00000  Uiso   1.00
H571   H     0.28864   0.72285   0.99286   0.00000  Uiso   1.00
C572   C     0.47180   0.77900   0.91040   0.00000  Uiso   1.00
H573   H     0.49672   0.75491   0.91217   0.00000  Uiso   1.00
C574   C     0.55740   0.73860   0.80420   0.00000  Uiso   1.00
C575   C     0.28280   0.65930   0.01100   0.00000  Uiso   1.00
C576   C     0.26480   0.64960   0.08170   0.00000  Uiso   1.00
H577   H     0.25520   0.62778   0.10692   0.00000  Uiso   1.00
C578   C     0.48400   0.71630   0.84050   0.00000  Uiso   1.00
C579   C     0.27490   0.71680   0.05710   0.00000  Uiso   1.00
H580   H     0.27493   0.75121   0.06162   0.00000  Uiso   1.00
C581   C     0.43220   0.76750   0.89750   0.00000  Uiso   1.00
C582   C     0.52350   0.76250   0.79820   0.00000  Uiso   1.00
H583   H     0.52552   0.79077   0.77817   0.00000  Uiso   1.00
C584   C     0.40920   0.83980   0.90620   0.00000  Uiso   1.00
H585   H     0.38537   0.86496   0.90428   0.00000  Uiso   1.00
C586   C     0.27390   0.63420   0.04270   0.00000  Uiso   1.00
H587   H     0.27368   0.59980   0.03807   0.00000  Uiso   1.00
C588   C     0.34610   0.64400   0.91760   0.00000  Uiso   1.00
C589   C     0.48720   0.75120   0.81710   0.00000  Uiso   1.00
H590   H     0.45959   0.77178   0.81277   0.00000  Uiso   1.00
C591   C     0.43380   0.66310   0.84730   0.00000  Uiso   1.00
H592   H     0.45210   0.64626   0.82309   0.00000  Uiso   1.00
C593   C     0.32700   0.66080   0.95340   0.00000  Uiso   1.00
H594   H     0.33909   0.69019   0.96735   0.00000  Uiso   1.00
C595   C     0.37780   0.66620   0.89550   0.00000  Uiso   1.00
C596   C     0.29510   0.64350   0.97170   0.00000  Uiso   1.00
C597   C     0.39940   0.64450   0.86500   0.00000  Uiso   1.00
C598   C     0.44630   0.70210   0.85870   0.00000  Uiso   1.00
C599   C     0.42270   0.72430   0.88730   0.00000  Uiso   1.00
C600   C     0.40190   0.79750   0.89680   0.00000  Uiso   1.00
H601   H     0.36999   0.78689   0.88820   0.00000  Uiso   1.00
C602   C     0.38950   0.70420   0.90510   0.00000  Uiso   1.00
H603   H     0.37052   0.72018   0.92937   0.00000  Uiso   1.00
C604   C     0.59630   0.74930   0.78490   0.00000  Uiso   1.00
C605   C     0.51810   0.69500   0.84610   0.00000  Uiso   1.00
H606   H     0.51769   0.66647   0.86586   0.00000  Uiso   1.00
C607   C     0.55520   0.70550   0.82900   0.00000  Uiso   1.00
H608   H     0.58368   0.68676   0.83550   0.00000  Uiso   1.00
C609   C     0.68370   0.62140   0.72710   0.00000  Uiso   1.00
H610   H     0.66813   0.59129   0.71965   0.00000  Uiso   1.00
Zr611  Zr    0.77816   0.19306   0.27982   0.00000  Uiso   1.00
Zr612  Zr    0.81762   0.29146   0.26765   0.00000  Uiso   1.00
O613   O     0.82426   0.22839   0.24345   0.00000  Uiso   1.00
O614   O     0.77741   0.25406   0.29654   0.00000  Uiso   1.00
O615   O     0.06733   0.08055   0.43016   0.00000  Uiso   1.00
O616   O     0.00265   0.10304   0.43622   0.00000  Uiso   1.00
O617   O     0.22367   0.26022   0.63780   0.00000  Uiso   1.00
O618   O     0.25945   0.31559   0.65487   0.00000  Uiso   1.00
O619   O     0.83150   0.35510   0.25350   0.00000  Uiso   1.00
O620   O     0.83563   0.18400   0.31840   0.00000  Uiso   1.00
H621   H     0.83563   0.18400   0.28461   0.00000  Uiso   1.00
O622   O     0.87212   0.27280   0.29490   0.00000  Uiso   1.00
C623   C     0.23260   0.31000   0.58930   0.00000  Uiso   1.00
O624   O     0.90176   0.22000   0.26050   0.00000  Uiso   1.00
C625   C     0.04070   0.10850   0.42890   0.00000  Uiso   1.00
C626   C     0.04980   0.15070   0.41880   0.00000  Uiso   1.00
C627   C     0.23930   0.29390   0.63050   0.00000  Uiso   1.00
C628   C     0.01980   0.18170   0.42060   0.00000  Uiso   1.00
H629   H     0.98753   0.17405   0.43082   0.00000  Uiso   1.00
O630   O     0.77970   0.37020   0.20490   0.00000  Uiso   1.00
C631   C     0.21750   0.29960   0.51860   0.00000  Uiso   1.00
H632   H     0.21136   0.27715   0.49286   0.00000  Uiso   1.00
C633   C     0.02820   0.22100   0.41040   0.00000  Uiso   1.00
H634   H     0.00328   0.24509   0.41217   0.00000  Uiso   1.00
C635   C     0.94260   0.26140   0.30420   0.00000  Uiso   1.00
C636   C     0.21720   0.34070   0.51100   0.00000  Uiso   1.00
C637   C     0.23520   0.35040   0.58170   0.00000  Uiso   1.00
H638   H     0.24480   0.37222   0.60692   0.00000  Uiso   1.00
C639   C     0.01600   0.28370   0.34050   0.00000  Uiso   1.00
C640   C     0.22510   0.28320   0.55710   0.00000  Uiso   1.00
H641   H     0.22507   0.24879   0.56162   0.00000  Uiso   1.00
C642   C     0.06780   0.23250   0.39750   0.00000  Uiso   1.00
C643   C     0.97650   0.23750   0.29820   0.00000  Uiso   1.00
H644   H     0.97448   0.20923   0.27817   0.00000  Uiso   1.00
C645   C     0.09080   0.16020   0.40620   0.00000  Uiso   1.00
H646   H     0.11463   0.13504   0.40428   0.00000  Uiso   1.00
C647   C     0.22610   0.36580   0.54270   0.00000  Uiso   1.00
H648   H     0.22632   0.40020   0.53807   0.00000  Uiso   1.00
C649   C     0.15390   0.35600   0.41760   0.00000  Uiso   1.00
C650   C     0.01280   0.24880   0.31710   0.00000  Uiso   1.00
H651   H     0.04041   0.22822   0.31277   0.00000  Uiso   1.00
C652   C     0.06620   0.33690   0.34730   0.00000  Uiso   1.00
H653   H     0.04790   0.35374   0.32309   0.00000  Uiso   1.00
C654   C     0.17300   0.33920   0.45340   0.00000  Uiso   1.00
H655   H     0.16091   0.30981   0.46735   0.00000  Uiso   1.00
C656   C     0.12220   0.33380   0.39550   0.00000  Uiso   1.00
C657   C     0.20490   0.35650   0.47170   0.00000  Uiso   1.00
C658   C     0.10060   0.35550   0.36500   0.00000  Uiso   1.00
C659   C     0.05370   0.29790   0.35870   0.00000  Uiso   1.00
C660   C     0.07730   0.27570   0.38730   0.00000  Uiso   1.00
C661   C     0.09810   0.20250   0.39680   0.00000  Uiso   1.00
H662   H     0.13001   0.21311   0.38820   0.00000  Uiso   1.00
C663   C     0.11050   0.29580   0.40510   0.00000  Uiso   1.00
H664   H     0.12948   0.27982   0.42937   0.00000  Uiso   1.00
C665   C     0.90370   0.25070   0.28490   0.00000  Uiso   1.00
C666   C     0.98190   0.30500   0.34610   0.00000  Uiso   1.00
H667   H     0.98231   0.33353   0.36586   0.00000  Uiso   1.00
C668   C     0.94480   0.29450   0.32900   0.00000  Uiso   1.00
H669   H     0.91632   0.31324   0.33550   0.00000  Uiso   1.00
C670   C     0.81630   0.37860   0.22710   0.00000  Uiso   1.00
H671   H     0.83187   0.40871   0.21965   0.00000  Uiso   1.00
Zr672  Zr    0.22184   0.69306   0.22018   0.00000  Uiso   1.00
Zr673  Zr    0.18238   0.79146   0.23235   0.00000  Uiso   1.00
O674   O     0.17574   0.72839   0.25655   0.00000  Uiso   1.00
O675   O     0.22259   0.75406   0.20346   0.00000  Uiso   1.00
O676   O     0.93267   0.58055   0.06984   0.00000  Uiso   1.00
O677   O     0.99735   0.60304   0.06378   0.00000  Uiso   1.00
O678   O     0.77633   0.76022   0.86220   0.00000  Uiso   1.00
O679   O     0.74055   0.81559   0.84513   0.00000  Uiso   1.00
O680   O     0.16850   0.85510   0.24650   0.00000  Uiso   1.00
O681   O     0.16437   0.68400   0.18160   0.00000  Uiso   1.00
H682   H     0.16437   0.68400   0.21539   0.00000  Uiso   1.00
O683   O     0.12788   0.77280   0.20510   0.00000  Uiso   1.00
C684   C     0.76740   0.81000   0.91070   0.00000  Uiso   1.00
O685   O     0.09824   0.72000   0.23950   0.00000  Uiso   1.00
C686   C     0.95930   0.60850   0.07110   0.00000  Uiso   1.00
C687   C     0.95020   0.65070   0.08120   0.00000  Uiso   1.00
C688   C     0.76070   0.79390   0.86950   0.00000  Uiso   1.00
C689   C     0.98020   0.68170   0.07940   0.00000  Uiso   1.00
H690   H     0.01247   0.67405   0.06918   0.00000  Uiso   1.00
O691   O     0.22030   0.87020   0.29510   0.00000  Uiso   1.00
C692   C     0.78250   0.79960   0.98140   0.00000  Uiso   1.00
H693   H     0.78864   0.77715   0.00714   0.00000  Uiso   1.00
C694   C     0.97180   0.72100   0.08960   0.00000  Uiso   1.00
H695   H     0.99672   0.74509   0.08783   0.00000  Uiso   1.00
C696   C     0.05740   0.76140   0.19580   0.00000  Uiso   1.00
C697   C     0.78280   0.84070   0.98900   0.00000  Uiso   1.00
C698   C     0.76480   0.85040   0.91830   0.00000  Uiso   1.00
H699   H     0.75520   0.87222   0.89308   0.00000  Uiso   1.00
C700   C     0.98400   0.78370   0.15950   0.00000  Uiso   1.00
C701   C     0.77490   0.78320   0.94290   0.00000  Uiso   1.00
H702   H     0.77493   0.74879   0.93838   0.00000  Uiso   1.00
C703   C     0.93220   0.73250   0.10250   0.00000  Uiso   1.00
C704   C     0.02350   0.73750   0.20180   0.00000  Uiso   1.00
H705   H     0.02552   0.70923   0.22183   0.00000  Uiso   1.00
C706   C     0.90920   0.66020   0.09380   0.00000  Uiso   1.00
H707   H     0.88537   0.63504   0.09572   0.00000  Uiso   1.00
C708   C     0.77390   0.86580   0.95730   0.00000  Uiso   1.00
H709   H     0.77368   0.90020   0.96193   0.00000  Uiso   1.00
C710   C     0.84610   0.85600   0.08240   0.00000  Uiso   1.00
C711   C     0.98720   0.74880   0.18290   0.00000  Uiso   1.00
H712   H     0.95959   0.72822   0.18723   0.00000  Uiso   1.00
C713   C     0.93380   0.83690   0.15270   0.00000  Uiso   1.00
H714   H     0.95210   0.85374   0.17691   0.00000  Uiso   1.00
C715   C     0.82700   0.83920   0.04660   0.00000  Uiso   1.00
H716   H     0.83909   0.80981   0.03265   0.00000  Uiso   1.00
C717   C     0.87780   0.83380   0.10450   0.00000  Uiso   1.00
C718   C     0.79510   0.85650   0.02830   0.00000  Uiso   1.00
C719   C     0.89940   0.85550   0.13500   0.00000  Uiso   1.00
C720   C     0.94630   0.79790   0.14130   0.00000  Uiso   1.00
C721   C     0.92270   0.77570   0.11270   0.00000  Uiso   1.00
C722   C     0.90190   0.70250   0.10320   0.00000  Uiso   1.00
H723   H     0.86999   0.71311   0.11180   0.00000  Uiso   1.00
C724   C     0.88950   0.79580   0.09490   0.00000  Uiso   1.00
H725   H     0.87052   0.77982   0.07063   0.00000  Uiso   1.00
C726   C     0.09630   0.75070   0.21510   0.00000  Uiso   1.00
C727   C     0.01810   0.80500   0.15390   0.00000  Uiso   1.00
H728   H     0.01769   0.83353   0.13414   0.00000  Uiso   1.00
C729   C     0.05520   0.79450   0.17100   0.00000  Uiso   1.00
H730   H     0.08368   0.81324   0.16450   0.00000  Uiso   1.00
C731   C     0.18370   0.87860   0.27290   0.00000  Uiso   1.00
H732   H     0.16813   0.90871   0.28035   0.00000  Uiso   1.00
Zr733  Zr    0.52816   0.47018   0.44306   0.00000  Uiso   1.00
Zr734  Zr    0.56762   0.48235   0.54146   0.00000  Uiso   1.00
O735   O     0.57426   0.50655   0.47839   0.00000  Uiso   1.00
O736   O     0.52741   0.45346   0.50406   0.00000  Uiso   1.00
O737   O     0.81733   0.31984   0.33055   0.00000  Uiso   1.00
O738   O     0.75265   0.31378   0.35304   0.00000  Uiso   1.00
O739   O     0.97367   0.11220   0.51022   0.00000  Uiso   1.00
O740   O     0.00945   0.09513   0.56559   0.00000  Uiso   1.00
O741   O     0.58150   0.49650   0.60510   0.00000  Uiso   1.00
O742   O     0.58563   0.43160   0.43400   0.00000  Uiso   1.00
H743   H     0.58563   0.46539   0.43400   0.00000  Uiso   1.00
O744   O     0.62212   0.45510   0.52280   0.00000  Uiso   1.00
C745   C     0.98260   0.16070   0.56000   0.00000  Uiso   1.00
O746   O     0.65176   0.48950   0.47000   0.00000  Uiso   1.00
C747   C     0.79070   0.32110   0.35850   0.00000  Uiso   1.00
C748   C     0.79980   0.33120   0.40070   0.00000  Uiso   1.00
C749   C     0.98930   0.11950   0.54390   0.00000  Uiso   1.00
C750   C     0.76980   0.32940   0.43170   0.00000  Uiso   1.00
H751   H     0.73753   0.31918   0.42405   0.00000  Uiso   1.00
O752   O     0.52970   0.54510   0.62020   0.00000  Uiso   1.00
C753   C     0.96750   0.23140   0.54960   0.00000  Uiso   1.00
H754   H     0.96136   0.25714   0.52715   0.00000  Uiso   1.00
C755   C     0.77820   0.33960   0.47100   0.00000  Uiso   1.00
H756   H     0.75328   0.33783   0.49509   0.00000  Uiso   1.00
C757   C     0.69260   0.44580   0.51140   0.00000  Uiso   1.00
C758   C     0.96720   0.23900   0.59070   0.00000  Uiso   1.00
C759   C     0.98520   0.16830   0.60040   0.00000  Uiso   1.00
H760   H     0.99480   0.14308   0.62222   0.00000  Uiso   1.00
C761   C     0.76600   0.40950   0.53370   0.00000  Uiso   1.00
C762   C     0.97510   0.19290   0.53320   0.00000  Uiso   1.00
H763   H     0.97507   0.18838   0.49879   0.00000  Uiso   1.00
C764   C     0.81780   0.35250   0.48250   0.00000  Uiso   1.00
C765   C     0.72650   0.45180   0.48750   0.00000  Uiso   1.00
H766   H     0.72448   0.47183   0.45923   0.00000  Uiso   1.00
C767   C     0.84080   0.34380   0.41020   0.00000  Uiso   1.00
H768   H     0.86463   0.34572   0.38504   0.00000  Uiso   1.00
C769   C     0.97610   0.20730   0.61580   0.00000  Uiso   1.00
H770   H     0.97632   0.21193   0.65020   0.00000  Uiso   1.00
C771   C     0.90390   0.33240   0.60600   0.00000  Uiso   1.00
C772   C     0.76280   0.43290   0.49880   0.00000  Uiso   1.00
H773   H     0.79041   0.43723   0.47822   0.00000  Uiso   1.00
C774   C     0.81620   0.40270   0.58690   0.00000  Uiso   1.00
H775   H     0.79790   0.42691   0.60374   0.00000  Uiso   1.00
C776   C     0.92300   0.29660   0.58920   0.00000  Uiso   1.00
H777   H     0.91091   0.28265   0.55981   0.00000  Uiso   1.00
C778   C     0.87220   0.35450   0.58380   0.00000  Uiso   1.00
C779   C     0.95490   0.27830   0.60650   0.00000  Uiso   1.00
C780   C     0.85060   0.38500   0.60550   0.00000  Uiso   1.00
C781   C     0.80370   0.39130   0.54790   0.00000  Uiso   1.00
C782   C     0.82730   0.36270   0.52570   0.00000  Uiso   1.00
C783   C     0.84810   0.35320   0.45250   0.00000  Uiso   1.00
H784   H     0.88001   0.36180   0.46311   0.00000  Uiso   1.00
C785   C     0.86050   0.34490   0.54580   0.00000  Uiso   1.00
H786   H     0.87948   0.32063   0.52982   0.00000  Uiso   1.00
C787   C     0.65370   0.46510   0.50070   0.00000  Uiso   1.00
C788   C     0.73190   0.40390   0.55500   0.00000  Uiso   1.00
H789   H     0.73231   0.38414   0.58353   0.00000  Uiso   1.00
C790   C     0.69480   0.42100   0.54450   0.00000  Uiso   1.00
H791   H     0.66632   0.41450   0.56324   0.00000  Uiso   1.00
C792   C     0.56630   0.52290   0.62860   0.00000  Uiso   1.00
H793   H     0.58187   0.53035   0.65871   0.00000  Uiso   1.00
Zr794  Zr    0.97184   0.52982   0.94306   0.00000  Uiso   1.00
Zr795  Zr    0.93238   0.51765   0.04146   0.00000  Uiso   1.00
O796   O     0.92574   0.49345   0.97839   0.00000  Uiso   1.00
O797   O     0.97259   0.54654   0.00406   0.00000  Uiso   1.00
O798   O     0.68267   0.68016   0.83055   0.00000  Uiso   1.00
O799   O     0.74735   0.68622   0.85304   0.00000  Uiso   1.00
O800   O     0.52633   0.88780   0.01022   0.00000  Uiso   1.00
O801   O     0.49055   0.90487   0.06559   0.00000  Uiso   1.00
O802   O     0.91850   0.50350   0.10510   0.00000  Uiso   1.00
O803   O     0.91437   0.56840   0.93400   0.00000  Uiso   1.00
H804   H     0.91437   0.53461   0.93400   0.00000  Uiso   1.00
O805   O     0.87788   0.54490   0.02280   0.00000  Uiso   1.00
C806   C     0.51740   0.83930   0.06000   0.00000  Uiso   1.00
O807   O     0.84824   0.51050   0.97000   0.00000  Uiso   1.00
C808   C     0.70930   0.67890   0.85850   0.00000  Uiso   1.00
C809   C     0.70020   0.66880   0.90070   0.00000  Uiso   1.00
C810   C     0.51070   0.88050   0.04390   0.00000  Uiso   1.00
C811   C     0.73020   0.67060   0.93170   0.00000  Uiso   1.00
H812   H     0.76247   0.68082   0.92405   0.00000  Uiso   1.00
O813   O     0.97030   0.45490   0.12020   0.00000  Uiso   1.00
C814   C     0.53250   0.76860   0.04960   0.00000  Uiso   1.00
H815   H     0.53864   0.74286   0.02715   0.00000  Uiso   1.00
C816   C     0.72180   0.66040   0.97100   0.00000  Uiso   1.00
H817   H     0.74672   0.66217   0.99509   0.00000  Uiso   1.00
C818   C     0.80740   0.55420   0.01140   0.00000  Uiso   1.00
C819   C     0.53280   0.76100   0.09070   0.00000  Uiso   1.00
C820   C     0.51480   0.83170   0.10040   0.00000  Uiso   1.00
H821   H     0.50520   0.85692   0.12222   0.00000  Uiso   1.00
C822   C     0.73400   0.59050   0.03370   0.00000  Uiso   1.00
C823   C     0.52490   0.80710   0.03320   0.00000  Uiso   1.00
H824   H     0.52493   0.81162   0.99879   0.00000  Uiso   1.00
C825   C     0.68220   0.64750   0.98250   0.00000  Uiso   1.00
C826   C     0.77350   0.54820   0.98750   0.00000  Uiso   1.00
H827   H     0.77552   0.52817   0.95923   0.00000  Uiso   1.00
C828   C     0.65920   0.65620   0.91020   0.00000  Uiso   1.00
H829   H     0.63537   0.65428   0.88504   0.00000  Uiso   1.00
C830   C     0.52390   0.79270   0.11580   0.00000  Uiso   1.00
H831   H     0.52368   0.78807   0.15020   0.00000  Uiso   1.00
C832   C     0.59610   0.66760   0.10600   0.00000  Uiso   1.00
C833   C     0.73720   0.56710   0.99880   0.00000  Uiso   1.00
H834   H     0.70959   0.56277   0.97822   0.00000  Uiso   1.00
C835   C     0.68380   0.59730   0.08690   0.00000  Uiso   1.00
H836   H     0.70210   0.57309   0.10374   0.00000  Uiso   1.00
C837   C     0.57700   0.70340   0.08920   0.00000  Uiso   1.00
H838   H     0.58909   0.71735   0.05981   0.00000  Uiso   1.00
C839   C     0.62780   0.64550   0.08380   0.00000  Uiso   1.00
C840   C     0.54510   0.72170   0.10650   0.00000  Uiso   1.00
C841   C     0.64940   0.61500   0.10550   0.00000  Uiso   1.00
C842   C     0.69630   0.60870   0.04790   0.00000  Uiso   1.00
C843   C     0.67270   0.63730   0.02570   0.00000  Uiso   1.00
C844   C     0.65190   0.64680   0.95250   0.00000  Uiso   1.00
H845   H     0.61999   0.63820   0.96311   0.00000  Uiso   1.00
C846   C     0.63950   0.65510   0.04580   0.00000  Uiso   1.00
H847   H     0.62052   0.67937   0.02982   0.00000  Uiso   1.00
C848   C     0.84630   0.53490   0.00070   0.00000  Uiso   1.00
C849   C     0.76810   0.59610   0.05500   0.00000  Uiso   1.00
H850   H     0.76769   0.61586   0.08353   0.00000  Uiso   1.00
C851   C     0.80520   0.57900   0.04450   0.00000  Uiso   1.00
H852   H     0.83368   0.58550   0.06324   0.00000  Uiso   1.00
C853   C     0.93370   0.47710   0.12860   0.00000  Uiso   1.00
H854   H     0.91813   0.46965   0.15871   0.00000  Uiso   1.00
Zr855  Zr    0.02816   0.02982   0.55694   0.00000  Uiso   1.00
Zr856  Zr    0.06762   0.01765   0.45854   0.00000  Uiso   1.00
O857   O     0.07426   0.99345   0.52161   0.00000  Uiso   1.00
O858   O     0.02741   0.04654   0.49594   0.00000  Uiso   1.00
O859   O     0.31733   0.18016   0.66945   0.00000  Uiso   1.00
O860   O     0.25265   0.18622   0.64696   0.00000  Uiso   1.00
O861   O     0.47367   0.38780   0.48978   0.00000  Uiso   1.00
O862   O     0.50945   0.40487   0.43441   0.00000  Uiso   1.00
O863   O     0.08150   0.00350   0.39490   0.00000  Uiso   1.00
O864   O     0.08563   0.06840   0.56600   0.00000  Uiso   1.00
H865   H     0.08563   0.03461   0.56600   0.00000  Uiso   1.00
O866   O     0.12212   0.04490   0.47720   0.00000  Uiso   1.00
C867   C     0.48260   0.33930   0.44000   0.00000  Uiso   1.00
O868   O     0.15176   0.01050   0.53000   0.00000  Uiso   1.00
C869   C     0.29070   0.17890   0.64150   0.00000  Uiso   1.00
C870   C     0.29980   0.16880   0.59930   0.00000  Uiso   1.00
C871   C     0.48930   0.38050   0.45610   0.00000  Uiso   1.00
C872   C     0.26980   0.17060   0.56830   0.00000  Uiso   1.00
H873   H     0.23753   0.18082   0.57595   0.00000  Uiso   1.00
O874   O     0.02970   0.95490   0.37980   0.00000  Uiso   1.00
C875   C     0.46750   0.26860   0.45040   0.00000  Uiso   1.00
H876   H     0.46136   0.24286   0.47285   0.00000  Uiso   1.00
C877   C     0.27820   0.16040   0.52900   0.00000  Uiso   1.00
H878   H     0.25328   0.16217   0.50491   0.00000  Uiso   1.00
C879   C     0.19260   0.05420   0.48860   0.00000  Uiso   1.00
C880   C     0.46720   0.26100   0.40930   0.00000  Uiso   1.00
C881   C     0.48520   0.33170   0.39960   0.00000  Uiso   1.00
H882   H     0.49480   0.35692   0.37778   0.00000  Uiso   1.00
C883   C     0.26600   0.09050   0.46630   0.00000  Uiso   1.00
C884   C     0.47510   0.30710   0.46680   0.00000  Uiso   1.00
H885   H     0.47507   0.31162   0.50121   0.00000  Uiso   1.00
C886   C     0.31780   0.14750   0.51750   0.00000  Uiso   1.00
C887   C     0.22650   0.04820   0.51250   0.00000  Uiso   1.00
H888   H     0.22448   0.02817   0.54077   0.00000  Uiso   1.00
C889   C     0.34080   0.15620   0.58980   0.00000  Uiso   1.00
H890   H     0.36463   0.15428   0.61496   0.00000  Uiso   1.00
C891   C     0.47610   0.29270   0.38420   0.00000  Uiso   1.00
H892   H     0.47632   0.28807   0.34980   0.00000  Uiso   1.00
C893   C     0.40390   0.16760   0.39400   0.00000  Uiso   1.00
C894   C     0.26280   0.06710   0.50120   0.00000  Uiso   1.00
H895   H     0.29041   0.06277   0.52178   0.00000  Uiso   1.00
C896   C     0.31620   0.09730   0.41310   0.00000  Uiso   1.00
H897   H     0.29790   0.07309   0.39626   0.00000  Uiso   1.00
C898   C     0.42300   0.20340   0.41080   0.00000  Uiso   1.00
H899   H     0.41091   0.21735   0.44019   0.00000  Uiso   1.00
C900   C     0.37220   0.14550   0.41620   0.00000  Uiso   1.00
C901   C     0.45490   0.22170   0.39350   0.00000  Uiso   1.00
C902   C     0.35060   0.11500   0.39450   0.00000  Uiso   1.00
C903   C     0.30370   0.10870   0.45210   0.00000  Uiso   1.00
C904   C     0.32730   0.13730   0.47430   0.00000  Uiso   1.00
C905   C     0.34810   0.14680   0.54750   0.00000  Uiso   1.00
H906   H     0.38001   0.13820   0.53689   0.00000  Uiso   1.00
C907   C     0.36050   0.15510   0.45420   0.00000  Uiso   1.00
H908   H     0.37948   0.17937   0.47018   0.00000  Uiso   1.00
C909   C     0.15370   0.03490   0.49930   0.00000  Uiso   1.00
C910   C     0.23190   0.09610   0.44500   0.00000  Uiso   1.00
H911   H     0.23231   0.11586   0.41647   0.00000  Uiso   1.00
C912   C     0.19480   0.07900   0.45550   0.00000  Uiso   1.00
H913   H     0.16632   0.08550   0.43676   0.00000  Uiso   1.00
C914   C     0.06630   0.97710   0.37140   0.00000  Uiso   1.00
H915   H     0.08187   0.96965   0.34129   0.00000  Uiso   1.00
Zr916  Zr    0.47184   0.97018   0.05694   0.00000  Uiso   1.00
Zr917  Zr    0.43238   0.98235   0.95854   0.00000  Uiso   1.00
O918   O     0.42574   0.00655   0.02161   0.00000  Uiso   1.00
O919   O     0.47259   0.95346   0.99594   0.00000  Uiso   1.00
O920   O     0.18267   0.81984   0.16945   0.00000  Uiso   1.00
O921   O     0.24735   0.81378   0.14696   0.00000  Uiso   1.00
O922   O     0.02633   0.61220   0.98978   0.00000  Uiso   1.00
O923   O     0.99055   0.59513   0.93441   0.00000  Uiso   1.00
O924   O     0.41850   0.99650   0.89490   0.00000  Uiso   1.00
O925   O     0.41437   0.93160   0.06600   0.00000  Uiso   1.00
H926   H     0.41437   0.96539   0.06600   0.00000  Uiso   1.00
O927   O     0.37788   0.95510   0.97720   0.00000  Uiso   1.00
C928   C     0.01740   0.66070   0.94000   0.00000  Uiso   1.00
O929   O     0.34824   0.98950   0.03000   0.00000  Uiso   1.00
C930   C     0.20930   0.82110   0.14150   0.00000  Uiso   1.00
C931   C     0.20020   0.83120   0.09930   0.00000  Uiso   1.00
C932   C     0.01070   0.61950   0.95610   0.00000  Uiso   1.00
C933   C     0.23020   0.82940   0.06830   0.00000  Uiso   1.00
H934   H     0.26247   0.81918   0.07595   0.00000  Uiso   1.00
O935   O     0.47030   0.04510   0.87980   0.00000  Uiso   1.00
C936   C     0.03250   0.73140   0.95040   0.00000  Uiso   1.00
H937   H     0.03864   0.75714   0.97285   0.00000  Uiso   1.00
C938   C     0.22180   0.83960   0.02900   0.00000  Uiso   1.00
H939   H     0.24672   0.83783   0.00491   0.00000  Uiso   1.00
C940   C     0.30740   0.94580   0.98860   0.00000  Uiso   1.00
C941   C     0.03280   0.73900   0.90930   0.00000  Uiso   1.00
C942   C     0.01480   0.66830   0.89960   0.00000  Uiso   1.00
H943   H     0.00520   0.64308   0.87778   0.00000  Uiso   1.00
C944   C     0.23400   0.90950   0.96630   0.00000  Uiso   1.00
C945   C     0.02490   0.69290   0.96680   0.00000  Uiso   1.00
H946   H     0.02493   0.68838   0.00121   0.00000  Uiso   1.00
C947   C     0.18220   0.85250   0.01750   0.00000  Uiso   1.00
C948   C     0.27350   0.95180   0.01250   0.00000  Uiso   1.00
H949   H     0.27552   0.97183   0.04077   0.00000  Uiso   1.00
C950   C     0.15920   0.84380   0.08980   0.00000  Uiso   1.00
H951   H     0.13537   0.84572   0.11496   0.00000  Uiso   1.00
C952   C     0.02390   0.70730   0.88420   0.00000  Uiso   1.00
H953   H     0.02368   0.71193   0.84980   0.00000  Uiso   1.00
C954   C     0.09610   0.83240   0.89400   0.00000  Uiso   1.00
C955   C     0.23720   0.93290   0.00120   0.00000  Uiso   1.00
H956   H     0.20959   0.93723   0.02178   0.00000  Uiso   1.00
C957   C     0.18380   0.90270   0.91310   0.00000  Uiso   1.00
H958   H     0.20210   0.92691   0.89626   0.00000  Uiso   1.00
C959   C     0.07700   0.79660   0.91080   0.00000  Uiso   1.00
H960   H     0.08909   0.78265   0.94019   0.00000  Uiso   1.00
C961   C     0.12780   0.85450   0.91620   0.00000  Uiso   1.00
C962   C     0.04510   0.77830   0.89350   0.00000  Uiso   1.00
C963   C     0.14940   0.88500   0.89450   0.00000  Uiso   1.00
C964   C     0.19630   0.89130   0.95210   0.00000  Uiso   1.00
C965   C     0.17270   0.86270   0.97430   0.00000  Uiso   1.00
C966   C     0.15190   0.85320   0.04750   0.00000  Uiso   1.00
H967   H     0.11999   0.86180   0.03689   0.00000  Uiso   1.00
C968   C     0.13950   0.84490   0.95420   0.00000  Uiso   1.00
H969   H     0.12052   0.82063   0.97018   0.00000  Uiso   1.00
C970   C     0.34630   0.96510   0.99930   0.00000  Uiso   1.00
C971   C     0.26810   0.90390   0.94500   0.00000  Uiso   1.00
H972   H     0.26769   0.88414   0.91647   0.00000  Uiso   1.00
C973   C     0.30520   0.92100   0.95550   0.00000  Uiso   1.00
H974   H     0.33368   0.91450   0.93676   0.00000  Uiso   1.00
C975   C     0.43370   0.02290   0.87140   0.00000  Uiso   1.00
H976   H     0.41813   0.03035   0.84129   0.00000  Uiso   1.00
Zr977  Zr    0.97018   0.05694   0.47184   0.00000  Uiso   1.00
Zr978  Zr    0.98235   0.95854   0.43238   0.00000  Uiso   1.00
O979   O     0.00655   0.02161   0.42574   0.00000  Uiso   1.00
O980   O     0.95346   0.99594   0.47259   0.00000  Uiso   1.00
O981   O     0.81984   0.16945   0.18267   0.00000  Uiso   1.00
O982   O     0.81378   0.14696   0.24735   0.00000  Uiso   1.00
O983   O     0.61220   0.98978   0.02633   0.00000  Uiso   1.00
O984   O     0.59513   0.93441   0.99055   0.00000  Uiso   1.00
O985   O     0.99650   0.89490   0.41850   0.00000  Uiso   1.00
O986   O     0.93160   0.06600   0.41437   0.00000  Uiso   1.00
H987   H     0.96539   0.06600   0.41437   0.00000  Uiso   1.00
O988   O     0.95510   0.97720   0.37788   0.00000  Uiso   1.00
C989   C     0.66070   0.94000   0.01740   0.00000  Uiso   1.00
O990   O     0.98950   0.03000   0.34824   0.00000  Uiso   1.00
C991   C     0.82110   0.14150   0.20930   0.00000  Uiso   1.00
C992   C     0.83120   0.09930   0.20020   0.00000  Uiso   1.00
C993   C     0.61950   0.95610   0.01070   0.00000  Uiso   1.00
C994   C     0.82940   0.06830   0.23020   0.00000  Uiso   1.00
H995   H     0.81918   0.07595   0.26247   0.00000  Uiso   1.00
O996   O     0.04510   0.87980   0.47030   0.00000  Uiso   1.00
C997   C     0.73140   0.95040   0.03250   0.00000  Uiso   1.00
H998   H     0.75714   0.97285   0.03864   0.00000  Uiso   1.00
C999   C     0.83960   0.02900   0.22180   0.00000  Uiso   1.00
H1000  H     0.83783   0.00491   0.24672   0.00000  Uiso   1.00
C1001  C     0.94580   0.98860   0.30740   0.00000  Uiso   1.00
C1002  C     0.73900   0.90930   0.03280   0.00000  Uiso   1.00
C1003  C     0.66830   0.89960   0.01480   0.00000  Uiso   1.00
H1004  H     0.64308   0.87778   0.00520   0.00000  Uiso   1.00
C1005  C     0.90950   0.96630   0.23400   0.00000  Uiso   1.00
C1006  C     0.69290   0.96680   0.02490   0.00000  Uiso   1.00
H1007  H     0.68838   0.00121   0.02493   0.00000  Uiso   1.00
C1008  C     0.85250   0.01750   0.18220   0.00000  Uiso   1.00
C1009  C     0.95180   0.01250   0.27350   0.00000  Uiso   1.00
H1010  H     0.97183   0.04077   0.27552   0.00000  Uiso   1.00
C1011  C     0.84380   0.08980   0.15920   0.00000  Uiso   1.00
H1012  H     0.84572   0.11496   0.13537   0.00000  Uiso   1.00
C1013  C     0.70730   0.88420   0.02390   0.00000  Uiso   1.00
H1014  H     0.71193   0.84980   0.02368   0.00000  Uiso   1.00
C1015  C     0.83240   0.89400   0.09610   0.00000  Uiso   1.00
C1016  C     0.93290   0.00120   0.23720   0.00000  Uiso   1.00
H1017  H     0.93723   0.02178   0.20959   0.00000  Uiso   1.00
C1018  C     0.90270   0.91310   0.18380   0.00000  Uiso   1.00
H1019  H     0.92691   0.89626   0.20210   0.00000  Uiso   1.00
C1020  C     0.79660   0.91080   0.07700   0.00000  Uiso   1.00
H1021  H     0.78265   0.94019   0.08909   0.00000  Uiso   1.00
C1022  C     0.85450   0.91620   0.12780   0.00000  Uiso   1.00
C1023  C     0.77830   0.89350   0.04510   0.00000  Uiso   1.00
C1024  C     0.88500   0.89450   0.14940   0.00000  Uiso   1.00
C1025  C     0.89130   0.95210   0.19630   0.00000  Uiso   1.00
C1026  C     0.86270   0.97430   0.17270   0.00000  Uiso   1.00
C1027  C     0.85320   0.04750   0.15190   0.00000  Uiso   1.00
H1028  H     0.86180   0.03689   0.11999   0.00000  Uiso   1.00
C1029  C     0.84490   0.95420   0.13950   0.00000  Uiso   1.00
H1030  H     0.82063   0.97018   0.12052   0.00000  Uiso   1.00
C1031  C     0.96510   0.99930   0.34630   0.00000  Uiso   1.00
C1032  C     0.90390   0.94500   0.26810   0.00000  Uiso   1.00
H1033  H     0.88414   0.91647   0.26769   0.00000  Uiso   1.00
C1034  C     0.92100   0.95550   0.30520   0.00000  Uiso   1.00
H1035  H     0.91450   0.93676   0.33368   0.00000  Uiso   1.00
C1036  C     0.02290   0.87140   0.43370   0.00000  Uiso   1.00
H1037  H     0.03035   0.84129   0.41813   0.00000  Uiso   1.00
Zr1038 Zr    0.02982   0.55694   0.02816   0.00000  Uiso   1.00
Zr1039 Zr    0.01765   0.45854   0.06762   0.00000  Uiso   1.00
O1040  O     0.99345   0.52161   0.07426   0.00000  Uiso   1.00
O1041  O     0.04654   0.49594   0.02741   0.00000  Uiso   1.00
O1042  O     0.18016   0.66945   0.31733   0.00000  Uiso   1.00
O1043  O     0.18622   0.64696   0.25265   0.00000  Uiso   1.00
O1044  O     0.38780   0.48978   0.47367   0.00000  Uiso   1.00
O1045  O     0.40487   0.43441   0.50945   0.00000  Uiso   1.00
O1046  O     0.00350   0.39490   0.08150   0.00000  Uiso   1.00
O1047  O     0.06840   0.56600   0.08563   0.00000  Uiso   1.00
H1048  H     0.03461   0.56600   0.08563   0.00000  Uiso   1.00
O1049  O     0.04490   0.47720   0.12212   0.00000  Uiso   1.00
C1050  C     0.33930   0.44000   0.48260   0.00000  Uiso   1.00
O1051  O     0.01050   0.53000   0.15176   0.00000  Uiso   1.00
C1052  C     0.17890   0.64150   0.29070   0.00000  Uiso   1.00
C1053  C     0.16880   0.59930   0.29980   0.00000  Uiso   1.00
C1054  C     0.38050   0.45610   0.48930   0.00000  Uiso   1.00
C1055  C     0.17060   0.56830   0.26980   0.00000  Uiso   1.00
H1056  H     0.18082   0.57595   0.23753   0.00000  Uiso   1.00
O1057  O     0.95490   0.37980   0.02970   0.00000  Uiso   1.00
C1058  C     0.26860   0.45040   0.46750   0.00000  Uiso   1.00
H1059  H     0.24286   0.47285   0.46136   0.00000  Uiso   1.00
C1060  C     0.16040   0.52900   0.27820   0.00000  Uiso   1.00
H1061  H     0.16217   0.50491   0.25328   0.00000  Uiso   1.00
C1062  C     0.05420   0.48860   0.19260   0.00000  Uiso   1.00
C1063  C     0.26100   0.40930   0.46720   0.00000  Uiso   1.00
C1064  C     0.33170   0.39960   0.48520   0.00000  Uiso   1.00
H1065  H     0.35692   0.37778   0.49480   0.00000  Uiso   1.00
C1066  C     0.09050   0.46630   0.26600   0.00000  Uiso   1.00
C1067  C     0.30710   0.46680   0.47510   0.00000  Uiso   1.00
H1068  H     0.31162   0.50121   0.47507   0.00000  Uiso   1.00
C1069  C     0.14750   0.51750   0.31780   0.00000  Uiso   1.00
C1070  C     0.04820   0.51250   0.22650   0.00000  Uiso   1.00
H1071  H     0.02817   0.54077   0.22448   0.00000  Uiso   1.00
C1072  C     0.15620   0.58980   0.34080   0.00000  Uiso   1.00
H1073  H     0.15428   0.61496   0.36463   0.00000  Uiso   1.00
C1074  C     0.29270   0.38420   0.47610   0.00000  Uiso   1.00
H1075  H     0.28807   0.34980   0.47632   0.00000  Uiso   1.00
C1076  C     0.16760   0.39400   0.40390   0.00000  Uiso   1.00
C1077  C     0.06710   0.50120   0.26280   0.00000  Uiso   1.00
H1078  H     0.06277   0.52178   0.29041   0.00000  Uiso   1.00
C1079  C     0.09730   0.41310   0.31620   0.00000  Uiso   1.00
H1080  H     0.07309   0.39626   0.29790   0.00000  Uiso   1.00
C1081  C     0.20340   0.41080   0.42300   0.00000  Uiso   1.00
H1082  H     0.21735   0.44019   0.41091   0.00000  Uiso   1.00
C1083  C     0.14550   0.41620   0.37220   0.00000  Uiso   1.00
C1084  C     0.22170   0.39350   0.45490   0.00000  Uiso   1.00
C1085  C     0.11500   0.39450   0.35060   0.00000  Uiso   1.00
C1086  C     0.10870   0.45210   0.30370   0.00000  Uiso   1.00
C1087  C     0.13730   0.47430   0.32730   0.00000  Uiso   1.00
C1088  C     0.14680   0.54750   0.34810   0.00000  Uiso   1.00
H1089  H     0.13820   0.53689   0.38001   0.00000  Uiso   1.00
C1090  C     0.15510   0.45420   0.36050   0.00000  Uiso   1.00
H1091  H     0.17937   0.47018   0.37948   0.00000  Uiso   1.00
C1092  C     0.03490   0.49930   0.15370   0.00000  Uiso   1.00
C1093  C     0.09610   0.44500   0.23190   0.00000  Uiso   1.00
H1094  H     0.11586   0.41647   0.23231   0.00000  Uiso   1.00
C1095  C     0.07900   0.45550   0.19480   0.00000  Uiso   1.00
H1096  H     0.08550   0.43676   0.16632   0.00000  Uiso   1.00
C1097  C     0.97710   0.37140   0.06630   0.00000  Uiso   1.00
H1098  H     0.96965   0.34129   0.08187   0.00000  Uiso   1.00
Zr1099 Zr    0.52982   0.94306   0.97184   0.00000  Uiso   1.00
Zr1100 Zr    0.51765   0.04146   0.93238   0.00000  Uiso   1.00
O1101  O     0.49345   0.97839   0.92574   0.00000  Uiso   1.00
O1102  O     0.54654   0.00406   0.97259   0.00000  Uiso   1.00
O1103  O     0.68016   0.83055   0.68267   0.00000  Uiso   1.00
O1104  O     0.68622   0.85304   0.74735   0.00000  Uiso   1.00
O1105  O     0.88780   0.01022   0.52633   0.00000  Uiso   1.00
O1106  O     0.90487   0.06559   0.49055   0.00000  Uiso   1.00
O1107  O     0.50350   0.10510   0.91850   0.00000  Uiso   1.00
O1108  O     0.56840   0.93400   0.91437   0.00000  Uiso   1.00
H1109  H     0.53461   0.93400   0.91437   0.00000  Uiso   1.00
O1110  O     0.54490   0.02280   0.87788   0.00000  Uiso   1.00
C1111  C     0.83930   0.06000   0.51740   0.00000  Uiso   1.00
O1112  O     0.51050   0.97000   0.84824   0.00000  Uiso   1.00
C1113  C     0.67890   0.85850   0.70930   0.00000  Uiso   1.00
C1114  C     0.66880   0.90070   0.70020   0.00000  Uiso   1.00
C1115  C     0.88050   0.04390   0.51070   0.00000  Uiso   1.00
C1116  C     0.67060   0.93170   0.73020   0.00000  Uiso   1.00
H1117  H     0.68082   0.92405   0.76247   0.00000  Uiso   1.00
O1118  O     0.45490   0.12020   0.97030   0.00000  Uiso   1.00
C1119  C     0.76860   0.04960   0.53250   0.00000  Uiso   1.00
H1120  H     0.74286   0.02715   0.53864   0.00000  Uiso   1.00
C1121  C     0.66040   0.97100   0.72180   0.00000  Uiso   1.00
H1122  H     0.66217   0.99509   0.74672   0.00000  Uiso   1.00
C1123  C     0.55420   0.01140   0.80740   0.00000  Uiso   1.00
C1124  C     0.76100   0.09070   0.53280   0.00000  Uiso   1.00
C1125  C     0.83170   0.10040   0.51480   0.00000  Uiso   1.00
H1126  H     0.85692   0.12222   0.50520   0.00000  Uiso   1.00
C1127  C     0.59050   0.03370   0.73400   0.00000  Uiso   1.00
C1128  C     0.80710   0.03320   0.52490   0.00000  Uiso   1.00
H1129  H     0.81162   0.99879   0.52493   0.00000  Uiso   1.00
C1130  C     0.64750   0.98250   0.68220   0.00000  Uiso   1.00
C1131  C     0.54820   0.98750   0.77350   0.00000  Uiso   1.00
H1132  H     0.52817   0.95923   0.77552   0.00000  Uiso   1.00
C1133  C     0.65620   0.91020   0.65920   0.00000  Uiso   1.00
H1134  H     0.65428   0.88504   0.63537   0.00000  Uiso   1.00
C1135  C     0.79270   0.11580   0.52390   0.00000  Uiso   1.00
H1136  H     0.78807   0.15020   0.52368   0.00000  Uiso   1.00
C1137  C     0.66760   0.10600   0.59610   0.00000  Uiso   1.00
C1138  C     0.56710   0.99880   0.73720   0.00000  Uiso   1.00
H1139  H     0.56277   0.97822   0.70959   0.00000  Uiso   1.00
C1140  C     0.59730   0.08690   0.68380   0.00000  Uiso   1.00
H1141  H     0.57309   0.10374   0.70210   0.00000  Uiso   1.00
C1142  C     0.70340   0.08920   0.57700   0.00000  Uiso   1.00
H1143  H     0.71735   0.05981   0.58909   0.00000  Uiso   1.00
C1144  C     0.64550   0.08380   0.62780   0.00000  Uiso   1.00
C1145  C     0.72170   0.10650   0.54510   0.00000  Uiso   1.00
C1146  C     0.61500   0.10550   0.64940   0.00000  Uiso   1.00
C1147  C     0.60870   0.04790   0.69630   0.00000  Uiso   1.00
C1148  C     0.63730   0.02570   0.67270   0.00000  Uiso   1.00
C1149  C     0.64680   0.95250   0.65190   0.00000  Uiso   1.00
H1150  H     0.63820   0.96311   0.61999   0.00000  Uiso   1.00
C1151  C     0.65510   0.04580   0.63950   0.00000  Uiso   1.00
H1152  H     0.67937   0.02982   0.62052   0.00000  Uiso   1.00
C1153  C     0.53490   0.00070   0.84630   0.00000  Uiso   1.00
C1154  C     0.59610   0.05500   0.76810   0.00000  Uiso   1.00
H1155  H     0.61586   0.08353   0.76769   0.00000  Uiso   1.00
C1156  C     0.57900   0.04450   0.80520   0.00000  Uiso   1.00
H1157  H     0.58550   0.06324   0.83368   0.00000  Uiso   1.00
C1158  C     0.47710   0.12860   0.93370   0.00000  Uiso   1.00
H1159  H     0.46965   0.15871   0.91813   0.00000  Uiso   1.00
Zr1160 Zr    0.47018   0.44306   0.52816   0.00000  Uiso   1.00
Zr1161 Zr    0.48235   0.54146   0.56762   0.00000  Uiso   1.00
O1162  O     0.50655   0.47839   0.57426   0.00000  Uiso   1.00
O1163  O     0.45346   0.50406   0.52741   0.00000  Uiso   1.00
O1164  O     0.31984   0.33055   0.81733   0.00000  Uiso   1.00
O1165  O     0.31378   0.35304   0.75265   0.00000  Uiso   1.00
O1166  O     0.11220   0.51022   0.97367   0.00000  Uiso   1.00
O1167  O     0.09513   0.56559   0.00945   0.00000  Uiso   1.00
O1168  O     0.49650   0.60510   0.58150   0.00000  Uiso   1.00
O1169  O     0.43160   0.43400   0.58563   0.00000  Uiso   1.00
H1170  H     0.46539   0.43400   0.58563   0.00000  Uiso   1.00
O1171  O     0.45510   0.52280   0.62212   0.00000  Uiso   1.00
C1172  C     0.16070   0.56000   0.98260   0.00000  Uiso   1.00
O1173  O     0.48950   0.47000   0.65176   0.00000  Uiso   1.00
C1174  C     0.32110   0.35850   0.79070   0.00000  Uiso   1.00
C1175  C     0.33120   0.40070   0.79980   0.00000  Uiso   1.00
C1176  C     0.11950   0.54390   0.98930   0.00000  Uiso   1.00
C1177  C     0.32940   0.43170   0.76980   0.00000  Uiso   1.00
H1178  H     0.31918   0.42405   0.73753   0.00000  Uiso   1.00
O1179  O     0.54510   0.62020   0.52970   0.00000  Uiso   1.00
C1180  C     0.23140   0.54960   0.96750   0.00000  Uiso   1.00
H1181  H     0.25714   0.52715   0.96136   0.00000  Uiso   1.00
C1182  C     0.33960   0.47100   0.77820   0.00000  Uiso   1.00
H1183  H     0.33783   0.49509   0.75328   0.00000  Uiso   1.00
C1184  C     0.44580   0.51140   0.69260   0.00000  Uiso   1.00
C1185  C     0.23900   0.59070   0.96720   0.00000  Uiso   1.00
C1186  C     0.16830   0.60040   0.98520   0.00000  Uiso   1.00
H1187  H     0.14308   0.62222   0.99480   0.00000  Uiso   1.00
C1188  C     0.40950   0.53370   0.76600   0.00000  Uiso   1.00
C1189  C     0.19290   0.53320   0.97510   0.00000  Uiso   1.00
H1190  H     0.18838   0.49879   0.97507   0.00000  Uiso   1.00
C1191  C     0.35250   0.48250   0.81780   0.00000  Uiso   1.00
C1192  C     0.45180   0.48750   0.72650   0.00000  Uiso   1.00
H1193  H     0.47183   0.45923   0.72448   0.00000  Uiso   1.00
C1194  C     0.34380   0.41020   0.84080   0.00000  Uiso   1.00
H1195  H     0.34572   0.38504   0.86463   0.00000  Uiso   1.00
C1196  C     0.20730   0.61580   0.97610   0.00000  Uiso   1.00
H1197  H     0.21193   0.65020   0.97632   0.00000  Uiso   1.00
C1198  C     0.33240   0.60600   0.90390   0.00000  Uiso   1.00
C1199  C     0.43290   0.49880   0.76280   0.00000  Uiso   1.00
H1200  H     0.43723   0.47822   0.79041   0.00000  Uiso   1.00
C1201  C     0.40270   0.58690   0.81620   0.00000  Uiso   1.00
H1202  H     0.42691   0.60374   0.79790   0.00000  Uiso   1.00
C1203  C     0.29660   0.58920   0.92300   0.00000  Uiso   1.00
H1204  H     0.28265   0.55981   0.91091   0.00000  Uiso   1.00
C1205  C     0.35450   0.58380   0.87220   0.00000  Uiso   1.00
C1206  C     0.27830   0.60650   0.95490   0.00000  Uiso   1.00
C1207  C     0.38500   0.60550   0.85060   0.00000  Uiso   1.00
C1208  C     0.39130   0.54790   0.80370   0.00000  Uiso   1.00
C1209  C     0.36270   0.52570   0.82730   0.00000  Uiso   1.00
C1210  C     0.35320   0.45250   0.84810   0.00000  Uiso   1.00
H1211  H     0.36180   0.46311   0.88001   0.00000  Uiso   1.00
C1212  C     0.34490   0.54580   0.86050   0.00000  Uiso   1.00
H1213  H     0.32063   0.52982   0.87948   0.00000  Uiso   1.00
C1214  C     0.46510   0.50070   0.65370   0.00000  Uiso   1.00
C1215  C     0.40390   0.55500   0.73190   0.00000  Uiso   1.00
H1216  H     0.38414   0.58353   0.73231   0.00000  Uiso   1.00
C1217  C     0.42100   0.54450   0.69480   0.00000  Uiso   1.00
H1218  H     0.41450   0.56324   0.66632   0.00000  Uiso   1.00
C1219  C     0.52290   0.62860   0.56630   0.00000  Uiso   1.00
H1220  H     0.53035   0.65871   0.58187   0.00000  Uiso   1.00
Zr1221 Zr    0.55694   0.02816   0.02982   0.00000  Uiso   1.00
Zr1222 Zr    0.45854   0.06762   0.01765   0.00000  Uiso   1.00
O1223  O     0.52161   0.07426   0.99345   0.00000  Uiso   1.00
O1224  O     0.49594   0.02741   0.04654   0.00000  Uiso   1.00
O1225  O     0.66945   0.31733   0.18016   0.00000  Uiso   1.00
O1226  O     0.64696   0.25265   0.18622   0.00000  Uiso   1.00
O1227  O     0.48978   0.47367   0.38780   0.00000  Uiso   1.00
O1228  O     0.43441   0.50945   0.40487   0.00000  Uiso   1.00
O1229  O     0.39490   0.08150   0.00350   0.00000  Uiso   1.00
O1230  O     0.56600   0.08563   0.06840   0.00000  Uiso   1.00
H1231  H     0.56600   0.08563   0.03461   0.00000  Uiso   1.00
O1232  O     0.47720   0.12212   0.04490   0.00000  Uiso   1.00
C1233  C     0.44000   0.48260   0.33930   0.00000  Uiso   1.00
O1234  O     0.53000   0.15176   0.01050   0.00000  Uiso   1.00
C1235  C     0.64150   0.29070   0.17890   0.00000  Uiso   1.00
C1236  C     0.59930   0.29980   0.16880   0.00000  Uiso   1.00
C1237  C     0.45610   0.48930   0.38050   0.00000  Uiso   1.00
C1238  C     0.56830   0.26980   0.17060   0.00000  Uiso   1.00
H1239  H     0.57595   0.23753   0.18082   0.00000  Uiso   1.00
O1240  O     0.37980   0.02970   0.95490   0.00000  Uiso   1.00
C1241  C     0.45040   0.46750   0.26860   0.00000  Uiso   1.00
H1242  H     0.47285   0.46136   0.24286   0.00000  Uiso   1.00
C1243  C     0.52900   0.27820   0.16040   0.00000  Uiso   1.00
H1244  H     0.50491   0.25328   0.16217   0.00000  Uiso   1.00
C1245  C     0.48860   0.19260   0.05420   0.00000  Uiso   1.00
C1246  C     0.40930   0.46720   0.26100   0.00000  Uiso   1.00
C1247  C     0.39960   0.48520   0.33170   0.00000  Uiso   1.00
H1248  H     0.37778   0.49480   0.35692   0.00000  Uiso   1.00
C1249  C     0.46630   0.26600   0.09050   0.00000  Uiso   1.00
C1250  C     0.46680   0.47510   0.30710   0.00000  Uiso   1.00
H1251  H     0.50121   0.47507   0.31162   0.00000  Uiso   1.00
C1252  C     0.51750   0.31780   0.14750   0.00000  Uiso   1.00
C1253  C     0.51250   0.22650   0.04820   0.00000  Uiso   1.00
H1254  H     0.54077   0.22448   0.02817   0.00000  Uiso   1.00
C1255  C     0.58980   0.34080   0.15620   0.00000  Uiso   1.00
H1256  H     0.61496   0.36463   0.15428   0.00000  Uiso   1.00
C1257  C     0.38420   0.47610   0.29270   0.00000  Uiso   1.00
H1258  H     0.34980   0.47632   0.28807   0.00000  Uiso   1.00
C1259  C     0.39400   0.40390   0.16760   0.00000  Uiso   1.00
C1260  C     0.50120   0.26280   0.06710   0.00000  Uiso   1.00
H1261  H     0.52178   0.29041   0.06277   0.00000  Uiso   1.00
C1262  C     0.41310   0.31620   0.09730   0.00000  Uiso   1.00
H1263  H     0.39626   0.29790   0.07309   0.00000  Uiso   1.00
C1264  C     0.41080   0.42300   0.20340   0.00000  Uiso   1.00
H1265  H     0.44019   0.41091   0.21735   0.00000  Uiso   1.00
C1266  C     0.41620   0.37220   0.14550   0.00000  Uiso   1.00
C1267  C     0.39350   0.45490   0.22170   0.00000  Uiso   1.00
C1268  C     0.39450   0.35060   0.11500   0.00000  Uiso   1.00
C1269  C     0.45210   0.30370   0.10870   0.00000  Uiso   1.00
C1270  C     0.47430   0.32730   0.13730   0.00000  Uiso   1.00
C1271  C     0.54750   0.34810   0.14680   0.00000  Uiso   1.00
H1272  H     0.53689   0.38001   0.13820   0.00000  Uiso   1.00
C1273  C     0.45420   0.36050   0.15510   0.00000  Uiso   1.00
H1274  H     0.47018   0.37948   0.17937   0.00000  Uiso   1.00
C1275  C     0.49930   0.15370   0.03490   0.00000  Uiso   1.00
C1276  C     0.44500   0.23190   0.09610   0.00000  Uiso   1.00
H1277  H     0.41647   0.23231   0.11586   0.00000  Uiso   1.00
C1278  C     0.45550   0.19480   0.07900   0.00000  Uiso   1.00
H1279  H     0.43676   0.16632   0.08550   0.00000  Uiso   1.00
C1280  C     0.37140   0.06630   0.97710   0.00000  Uiso   1.00
H1281  H     0.34129   0.08187   0.96965   0.00000  Uiso   1.00
Zr1282 Zr    0.05694   0.47184   0.97018   0.00000  Uiso   1.00
Zr1283 Zr    0.95854   0.43238   0.98235   0.00000  Uiso   1.00
O1284  O     0.02161   0.42574   0.00655   0.00000  Uiso   1.00
O1285  O     0.99594   0.47259   0.95346   0.00000  Uiso   1.00
O1286  O     0.16945   0.18267   0.81984   0.00000  Uiso   1.00
O1287  O     0.14696   0.24735   0.81378   0.00000  Uiso   1.00
O1288  O     0.98978   0.02633   0.61220   0.00000  Uiso   1.00
O1289  O     0.93441   0.99055   0.59513   0.00000  Uiso   1.00
O1290  O     0.89490   0.41850   0.99650   0.00000  Uiso   1.00
O1291  O     0.06600   0.41437   0.93160   0.00000  Uiso   1.00
H1292  H     0.06600   0.41437   0.96539   0.00000  Uiso   1.00
O1293  O     0.97720   0.37788   0.95510   0.00000  Uiso   1.00
C1294  C     0.94000   0.01740   0.66070   0.00000  Uiso   1.00
O1295  O     0.03000   0.34824   0.98950   0.00000  Uiso   1.00
C1296  C     0.14150   0.20930   0.82110   0.00000  Uiso   1.00
C1297  C     0.09930   0.20020   0.83120   0.00000  Uiso   1.00
C1298  C     0.95610   0.01070   0.61950   0.00000  Uiso   1.00
C1299  C     0.06830   0.23020   0.82940   0.00000  Uiso   1.00
H1300  H     0.07595   0.26247   0.81918   0.00000  Uiso   1.00
O1301  O     0.87980   0.47030   0.04510   0.00000  Uiso   1.00
C1302  C     0.95040   0.03250   0.73140   0.00000  Uiso   1.00
H1303  H     0.97285   0.03864   0.75714   0.00000  Uiso   1.00
C1304  C     0.02900   0.22180   0.83960   0.00000  Uiso   1.00
H1305  H     0.00491   0.24672   0.83783   0.00000  Uiso   1.00
C1306  C     0.98860   0.30740   0.94580   0.00000  Uiso   1.00
C1307  C     0.90930   0.03280   0.73900   0.00000  Uiso   1.00
C1308  C     0.89960   0.01480   0.66830   0.00000  Uiso   1.00
H1309  H     0.87778   0.00520   0.64308   0.00000  Uiso   1.00
C1310  C     0.96630   0.23400   0.90950   0.00000  Uiso   1.00
C1311  C     0.96680   0.02490   0.69290   0.00000  Uiso   1.00
H1312  H     0.00121   0.02493   0.68838   0.00000  Uiso   1.00
C1313  C     0.01750   0.18220   0.85250   0.00000  Uiso   1.00
C1314  C     0.01250   0.27350   0.95180   0.00000  Uiso   1.00
H1315  H     0.04077   0.27552   0.97183   0.00000  Uiso   1.00
C1316  C     0.08980   0.15920   0.84380   0.00000  Uiso   1.00
H1317  H     0.11496   0.13537   0.84572   0.00000  Uiso   1.00
C1318  C     0.88420   0.02390   0.70730   0.00000  Uiso   1.00
H1319  H     0.84980   0.02368   0.71193   0.00000  Uiso   1.00
C1320  C     0.89400   0.09610   0.83240   0.00000  Uiso   1.00
C1321  C     0.00120   0.23720   0.93290   0.00000  Uiso   1.00
H1322  H     0.02178   0.20959   0.93723   0.00000  Uiso   1.00
C1323  C     0.91310   0.18380   0.90270   0.00000  Uiso   1.00
H1324  H     0.89626   0.20210   0.92691   0.00000  Uiso   1.00
C1325  C     0.91080   0.07700   0.79660   0.00000  Uiso   1.00
H1326  H     0.94019   0.08909   0.78265   0.00000  Uiso   1.00
C1327  C     0.91620   0.12780   0.85450   0.00000  Uiso   1.00
C1328  C     0.89350   0.04510   0.77830   0.00000  Uiso   1.00
C1329  C     0.89450   0.14940   0.88500   0.00000  Uiso   1.00
C1330  C     0.95210   0.19630   0.89130   0.00000  Uiso   1.00
C1331  C     0.97430   0.17270   0.86270   0.00000  Uiso   1.00
C1332  C     0.04750   0.15190   0.85320   0.00000  Uiso   1.00
H1333  H     0.03689   0.11999   0.86180   0.00000  Uiso   1.00
C1334  C     0.95420   0.13950   0.84490   0.00000  Uiso   1.00
H1335  H     0.97018   0.12052   0.82063   0.00000  Uiso   1.00
C1336  C     0.99930   0.34630   0.96510   0.00000  Uiso   1.00
C1337  C     0.94500   0.26810   0.90390   0.00000  Uiso   1.00
H1338  H     0.91647   0.26769   0.88414   0.00000  Uiso   1.00
C1339  C     0.95550   0.30520   0.92100   0.00000  Uiso   1.00
H1340  H     0.93676   0.33368   0.91450   0.00000  Uiso   1.00
C1341  C     0.87140   0.43370   0.02290   0.00000  Uiso   1.00
H1342  H     0.84129   0.41813   0.03035   0.00000  Uiso   1.00
Zr1343 Zr    0.44306   0.52816   0.47018   0.00000  Uiso   1.00
Zr1344 Zr    0.54146   0.56762   0.48235   0.00000  Uiso   1.00
O1345  O     0.47839   0.57426   0.50655   0.00000  Uiso   1.00
O1346  O     0.50406   0.52741   0.45346   0.00000  Uiso   1.00
O1347  O     0.33055   0.81733   0.31984   0.00000  Uiso   1.00
O1348  O     0.35304   0.75265   0.31378   0.00000  Uiso   1.00
O1349  O     0.51022   0.97367   0.11220   0.00000  Uiso   1.00
O1350  O     0.56559   0.00945   0.09513   0.00000  Uiso   1.00
O1351  O     0.60510   0.58150   0.49650   0.00000  Uiso   1.00
O1352  O     0.43400   0.58563   0.43160   0.00000  Uiso   1.00
H1353  H     0.43400   0.58563   0.46539   0.00000  Uiso   1.00
O1354  O     0.52280   0.62212   0.45510   0.00000  Uiso   1.00
C1355  C     0.56000   0.98260   0.16070   0.00000  Uiso   1.00
O1356  O     0.47000   0.65176   0.48950   0.00000  Uiso   1.00
C1357  C     0.35850   0.79070   0.32110   0.00000  Uiso   1.00
C1358  C     0.40070   0.79980   0.33120   0.00000  Uiso   1.00
C1359  C     0.54390   0.98930   0.11950   0.00000  Uiso   1.00
C1360  C     0.43170   0.76980   0.32940   0.00000  Uiso   1.00
H1361  H     0.42405   0.73753   0.31918   0.00000  Uiso   1.00
O1362  O     0.62020   0.52970   0.54510   0.00000  Uiso   1.00
C1363  C     0.54960   0.96750   0.23140   0.00000  Uiso   1.00
H1364  H     0.52715   0.96136   0.25714   0.00000  Uiso   1.00
C1365  C     0.47100   0.77820   0.33960   0.00000  Uiso   1.00
H1366  H     0.49509   0.75328   0.33783   0.00000  Uiso   1.00
C1367  C     0.51140   0.69260   0.44580   0.00000  Uiso   1.00
C1368  C     0.59070   0.96720   0.23900   0.00000  Uiso   1.00
C1369  C     0.60040   0.98520   0.16830   0.00000  Uiso   1.00
H1370  H     0.62222   0.99480   0.14308   0.00000  Uiso   1.00
C1371  C     0.53370   0.76600   0.40950   0.00000  Uiso   1.00
C1372  C     0.53320   0.97510   0.19290   0.00000  Uiso   1.00
H1373  H     0.49879   0.97507   0.18838   0.00000  Uiso   1.00
C1374  C     0.48250   0.81780   0.35250   0.00000  Uiso   1.00
C1375  C     0.48750   0.72650   0.45180   0.00000  Uiso   1.00
H1376  H     0.45923   0.72448   0.47183   0.00000  Uiso   1.00
C1377  C     0.41020   0.84080   0.34380   0.00000  Uiso   1.00
H1378  H     0.38504   0.86463   0.34572   0.00000  Uiso   1.00
C1379  C     0.61580   0.97610   0.20730   0.00000  Uiso   1.00
H1380  H     0.65020   0.97632   0.21193   0.00000  Uiso   1.00
C1381  C     0.60600   0.90390   0.33240   0.00000  Uiso   1.00
C1382  C     0.49880   0.76280   0.43290   0.00000  Uiso   1.00
H1383  H     0.47822   0.79041   0.43723   0.00000  Uiso   1.00
C1384  C     0.58690   0.81620   0.40270   0.00000  Uiso   1.00
H1385  H     0.60374   0.79790   0.42691   0.00000  Uiso   1.00
C1386  C     0.58920   0.92300   0.29660   0.00000  Uiso   1.00
H1387  H     0.55981   0.91091   0.28265   0.00000  Uiso   1.00
C1388  C     0.58380   0.87220   0.35450   0.00000  Uiso   1.00
C1389  C     0.60650   0.95490   0.27830   0.00000  Uiso   1.00
C1390  C     0.60550   0.85060   0.38500   0.00000  Uiso   1.00
C1391  C     0.54790   0.80370   0.39130   0.00000  Uiso   1.00
C1392  C     0.52570   0.82730   0.36270   0.00000  Uiso   1.00
C1393  C     0.45250   0.84810   0.35320   0.00000  Uiso   1.00
H1394  H     0.46311   0.88001   0.36180   0.00000  Uiso   1.00
C1395  C     0.54580   0.86050   0.34490   0.00000  Uiso   1.00
H1396  H     0.52982   0.87948   0.32063   0.00000  Uiso   1.00
C1397  C     0.50070   0.65370   0.46510   0.00000  Uiso   1.00
C1398  C     0.55500   0.73190   0.40390   0.00000  Uiso   1.00
H1399  H     0.58353   0.73231   0.38414   0.00000  Uiso   1.00
C1400  C     0.54450   0.69480   0.42100   0.00000  Uiso   1.00
H1401  H     0.56324   0.66632   0.41450   0.00000  Uiso   1.00
C1402  C     0.62860   0.56630   0.52290   0.00000  Uiso   1.00
H1403  H     0.65871   0.58187   0.53035   0.00000  Uiso   1.00
Zr1404 Zr    0.94306   0.97184   0.52982   0.00000  Uiso   1.00
Zr1405 Zr    0.04146   0.93238   0.51765   0.00000  Uiso   1.00
O1406  O     0.97839   0.92574   0.49345   0.00000  Uiso   1.00
O1407  O     0.00406   0.97259   0.54654   0.00000  Uiso   1.00
O1408  O     0.83055   0.68267   0.68016   0.00000  Uiso   1.00
O1409  O     0.85304   0.74735   0.68622   0.00000  Uiso   1.00
O1410  O     0.01022   0.52633   0.88780   0.00000  Uiso   1.00
O1411  O     0.06559   0.49055   0.90487   0.00000  Uiso   1.00
O1412  O     0.10510   0.91850   0.50350   0.00000  Uiso   1.00
O1413  O     0.93400   0.91437   0.56840   0.00000  Uiso   1.00
H1414  H     0.93400   0.91437   0.53461   0.00000  Uiso   1.00
O1415  O     0.02280   0.87788   0.54490   0.00000  Uiso   1.00
C1416  C     0.06000   0.51740   0.83930   0.00000  Uiso   1.00
O1417  O     0.97000   0.84824   0.51050   0.00000  Uiso   1.00
C1418  C     0.85850   0.70930   0.67890   0.00000  Uiso   1.00
C1419  C     0.90070   0.70020   0.66880   0.00000  Uiso   1.00
C1420  C     0.04390   0.51070   0.88050   0.00000  Uiso   1.00
C1421  C     0.93170   0.73020   0.67060   0.00000  Uiso   1.00
H1422  H     0.92405   0.76247   0.68082   0.00000  Uiso   1.00
O1423  O     0.12020   0.97030   0.45490   0.00000  Uiso   1.00
C1424  C     0.04960   0.53250   0.76860   0.00000  Uiso   1.00
H1425  H     0.02715   0.53864   0.74286   0.00000  Uiso   1.00
C1426  C     0.97100   0.72180   0.66040   0.00000  Uiso   1.00
H1427  H     0.99509   0.74672   0.66217   0.00000  Uiso   1.00
C1428  C     0.01140   0.80740   0.55420   0.00000  Uiso   1.00
C1429  C     0.09070   0.53280   0.76100   0.00000  Uiso   1.00
C1430  C     0.10040   0.51480   0.83170   0.00000  Uiso   1.00
H1431  H     0.12222   0.50520   0.85692   0.00000  Uiso   1.00
C1432  C     0.03370   0.73400   0.59050   0.00000  Uiso   1.00
C1433  C     0.03320   0.52490   0.80710   0.00000  Uiso   1.00
H1434  H     0.99879   0.52493   0.81162   0.00000  Uiso   1.00
C1435  C     0.98250   0.68220   0.64750   0.00000  Uiso   1.00
C1436  C     0.98750   0.77350   0.54820   0.00000  Uiso   1.00
H1437  H     0.95923   0.77552   0.52817   0.00000  Uiso   1.00
C1438  C     0.91020   0.65920   0.65620   0.00000  Uiso   1.00
H1439  H     0.88504   0.63537   0.65428   0.00000  Uiso   1.00
C1440  C     0.11580   0.52390   0.79270   0.00000  Uiso   1.00
H1441  H     0.15020   0.52368   0.78807   0.00000  Uiso   1.00
C1442  C     0.10600   0.59610   0.66760   0.00000  Uiso   1.00
C1443  C     0.99880   0.73720   0.56710   0.00000  Uiso   1.00
H1444  H     0.97822   0.70959   0.56277   0.00000  Uiso   1.00
C1445  C     0.08690   0.68380   0.59730   0.00000  Uiso   1.00
H1446  H     0.10374   0.70210   0.57309   0.00000  Uiso   1.00
C1447  C     0.08920   0.57700   0.70340   0.00000  Uiso   1.00
H1448  H     0.05981   0.58909   0.71735   0.00000  Uiso   1.00
C1449  C     0.08380   0.62780   0.64550   0.00000  Uiso   1.00
C1450  C     0.10650   0.54510   0.72170   0.00000  Uiso   1.00
C1451  C     0.10550   0.64940   0.61500   0.00000  Uiso   1.00
C1452  C     0.04790   0.69630   0.60870   0.00000  Uiso   1.00
C1453  C     0.02570   0.67270   0.63730   0.00000  Uiso   1.00
C1454  C     0.95250   0.65190   0.64680   0.00000  Uiso   1.00
H1455  H     0.96311   0.61999   0.63820   0.00000  Uiso   1.00
C1456  C     0.04580   0.63950   0.65510   0.00000  Uiso   1.00
H1457  H     0.02982   0.62052   0.67937   0.00000  Uiso   1.00
C1458  C     0.00070   0.84630   0.53490   0.00000  Uiso   1.00
C1459  C     0.05500   0.76810   0.59610   0.00000  Uiso   1.00
H1460  H     0.08353   0.76769   0.61586   0.00000  Uiso   1.00
C1461  C     0.04450   0.80520   0.57900   0.00000  Uiso   1.00
H1462  H     0.06324   0.83368   0.58550   0.00000  Uiso   1.00
C1463  C     0.12860   0.93370   0.47710   0.00000  Uiso   1.00
H1464  H     0.15871   0.91813   0.46965   0.00000  Uiso   1.00
O1465  O     0.78729   0.28729   0.21271   0.00000  Uiso   1.00
O1466  O     0.71346   0.21346   0.28654   0.00000  Uiso   1.00
O1467  O     0.71271   0.71271   0.71271   0.00000  Uiso   1.00
O1468  O     0.78654   0.78654   0.78654   0.00000  Uiso   1.00
O1469  O     0.21271   0.78729   0.28729   0.00000  Uiso   1.00
O1470  O     0.28654   0.71346   0.21346   0.00000  Uiso   1.00
O1471  O     0.28729   0.21271   0.78729   0.00000  Uiso   1.00
O1472  O     0.21346   0.28654   0.71346   0.00000  Uiso   1.00
O1473  O     0.53729   0.53729   0.53729   0.00000  Uiso   1.00
O1474  O     0.46346   0.46346   0.46346   0.00000  Uiso   1.00
O1475  O     0.96271   0.46271   0.03729   0.00000  Uiso   1.00
O1476  O     0.03654   0.53654   0.96346   0.00000  Uiso   1.00
O1477  O     0.03729   0.96271   0.46271   0.00000  Uiso   1.00
O1478  O     0.96346   0.03654   0.53654   0.00000  Uiso   1.00
O1479  O     0.46271   0.03729   0.96271   0.00000  Uiso   1.00
O1480  O     0.53654   0.96346   0.03654   0.00000  Uiso   1.00
loop_
_geom_bond_atom_site_label_1
_geom_bond_atom_site_label_2
_geom_bond_distance
_geom_bond_site_symmetry_2
_ccdc_geom_bond_type
Zr1    O3      2.251   .     S
Zr1    O4      2.078   .     S
Zr1    O10     2.293   .     S
Zr1    O1466   2.239   .     S
Zr1    O495    2.213   .     S
Zr1    O614    2.068   .     S
Zr1    O130    2.249   .     S
Zr1    O738    2.191   .     S
Zr2    O3      2.230   .     S
Zr2    O4      2.038   .     S
Zr2    O9      2.189   .     S
Zr2    O12     2.093   .     S
Zr2    O1465   2.066   .     S
Zr2    O630    2.327   .     S
Zr2    O1225   2.267   .     S
Zr2    O430    2.281   .     S
O3     Zr612   2.281   .     S
O4     Zr428   2.068   .     S
O5     C15     1.269   .     D
O5     Zr1344  2.267   .     S
O6     C15     1.285   .     S
O6     Zr733   2.191   .     S
O7     C17     1.243   .     D
O7     Zr245   2.213   .     S
O8     C17     1.260   .     S
O8     Zr123   2.249   .     S
O9     C60     1.264   .     D
O10    H11     1.110   .     S
O12    C55     1.308   .     S
C13    C17     1.469   .     S
C13    C27     1.353   .     S
C13    C30     1.398   .     D
O14    C55     1.290   .     D
C15    C16     1.456   .     S
C16    C18     1.418   .     S
C16    C35     1.443   .     D
C18    H19     1.140   .     S
C18    C23     1.362   .     D
O20    C60     1.433   .     S
O20    Zr429   2.327   .     S
C21    H22     1.140   .     S
C21    C26     1.373   .     D
C21    C30     1.397   .     S
C23    H24     1.140   .     S
C23    C32     1.419   .     S
C25    C33     1.377   .     S
C25    C55     1.469   .     S
C25    C58     1.360   .     D
C26    C37     1.360   .     S
C26    C47     1.449   .     S
C27    H28     1.140   .     S
C27    C37     1.409   .     D
C29    C40     1.384   .     S
C29    C49     1.452   .     S
C29    C56     1.333   .     D
C30    H31     1.140   .     S
C32    C50     1.491   .     S
C32    C51     1.401   .     D
C33    H34     1.140   .     S
C33    C40     1.395   .     D
C35    H36     1.140   .     S
C35    C51     1.443   .     S
C37    H38     1.140   .     S
C39    C44     1.443   .     D
C39    C46     1.464   .     S
C39    C832    1.401   .     S
C40    H41     1.140   .     S
C42    H43     1.140   .     S
C42    C48     1.410   .     S
C42    C49     1.396   .     D
C44    H45     1.140   .     S
C44    C47     1.335   .     S
C46    C48     1.420   .     D
C46    C53     1.344   .     S
C47    C840    1.444   .     D
C48    C841    1.445   .     S
C49    C50     1.420   .     S
C50    C53     1.402   .     D
C51    H52     1.140   .     S
C53    H54     1.140   .     S
C56    H57     1.140   .     S
C56    C58     1.385   .     S
C58    H59     1.140   .     S
C60    H61     1.140   .     S
Zr62   O64     2.251   .     S
Zr62   O65     2.078   .     S
Zr62   O71     2.293   .     S
Zr62   O1468   2.239   .     S
Zr62   O678    2.213   .     S
Zr62   O553    2.068   .     S
Zr62   O191    2.249   .     S
Zr62   O799    2.191   .     S
Zr63   O64     2.230   .     S
Zr63   O65     2.038   .     S
Zr63   O70     2.189   .     S
Zr63   O73     2.093   .     S
Zr63   O1467   2.066   .     S
Zr63   O569    2.327   .     S
Zr63   O1408   2.267   .     S
Zr63   O308    2.281   .     S
O64    Zr551   2.281   .     S
O65    Zr306   2.068   .     S
O66    C76     1.269   .     D
O66    Zr1283  2.267   .     S
O67    C76     1.285   .     S
O67    Zr794   2.191   .     S
O68    C78     1.243   .     D
O68    Zr367   2.213   .     S
O69    C78     1.260   .     S
O69    Zr184   2.249   .     S
O70    C121    1.264   .     D
O71    H72     1.110   .     S
O73    C116    1.308   .     S
C74    C78     1.469   .     S
C74    C88     1.353   .     S
C74    C91     1.398   .     D
O75    C116    1.290   .     D
C76    C77     1.456   .     S
C77    C79     1.418   .     S
C77    C96     1.443   .     D
C79    H80     1.140   .     S
C79    C84     1.362   .     D
O81    C121    1.433   .     S
O81    Zr307   2.327   .     S
C82    H83     1.140   1_455 S
C82    C87     1.373   .     D
C82    C91     1.397   .     S
H83    C82     1.140   1_655 S
C84    H85     1.140   .     S
C84    C93     1.419   .     S
C86    C94     1.377   .     S
C86    C116    1.469   .     S
C86    C119    1.360   .     D
C87    C98     1.360   .     S
C87    C108    1.449   1_455 S
C88    H89     1.140   .     S
C88    C98     1.409   .     D
C90    C101    1.384   .     S
C90    C110    1.452   .     S
C90    C117    1.333   .     D
C91    H92     1.140   .     S
C93    C111    1.491   .     S
C93    C112    1.401   .     D
C94    H95     1.140   .     S
C94    C101    1.395   .     D
C96    H97     1.140   .     S
C96    C112    1.443   .     S
C98    H99     1.140   .     S
C100   C105    1.443   .     D
C100   C107    1.464   .     S
C100   C771    1.401   .     S
C101   H102    1.140   .     S
C103   H104    1.140   .     S
C103   C109    1.410   .     S
C103   C110    1.396   .     D
C105   H106    1.140   .     S
C105   C108    1.335   .     S
C107   C109    1.420   .     D
C107   C114    1.344   .     S
C108   C87     1.449   1_655 S
C108   C779    1.444   .     D
C109   C780    1.445   .     S
C110   C111    1.420   .     S
C111   C114    1.402   .     D
C112   H113    1.140   .     S
C114   H115    1.140   .     S
C117   H118    1.140   .     S
C117   C119    1.385   .     S
C119   H120    1.140   .     S
C121   H122    1.140   .     S
Zr123  O125    2.251   .     S
Zr123  O126    2.078   .     S
Zr123  O132    2.293   .     S
Zr123  O1470   2.239   .     S
Zr123  O556    2.213   .     S
Zr123  O675    2.068   .     S
Zr123  O921    2.191   .     S
Zr124  O125    2.230   .     S
Zr124  O126    2.038   .     S
Zr124  O131    2.189   .     S
Zr124  O134    2.093   .     S
Zr124  O1469   2.066   .     S
Zr124  O691    2.327   .     S
Zr124  O1347   2.267   .     S
Zr124  O247    2.281   .     S
O125   Zr673   2.281   .     S
O126   Zr245   2.068   .     S
O127   C137    1.269   .     D
O127   Zr1222  2.267   .     S
O128   C137    1.285   .     S
O128   Zr916   2.191   1_545 S
O129   C139    1.243   .     D
O129   Zr428   2.213   .     S
O130   C139    1.260   .     S
O131   C182    1.264   .     D
O132   H133    1.110   .     S
O134   C177    1.308   .     S
C135   C139    1.469   .     S
C135   C149    1.353   .     S
C135   C152    1.398   .     D
O136   C177    1.290   .     D
C137   C138    1.456   .     S
C138   C140    1.418   .     S
C138   C157    1.443   .     D
C140   H141    1.140   1_545 S
C140   C145    1.362   .     D
H141   C140    1.140   1_565 S
O142   C182    1.433   .     S
O142   Zr246   2.327   .     S
C143   H144    1.140   .     S
C143   C148    1.373   .     D
C143   C152    1.397   .     S
C145   H146    1.140   .     S
C145   C154    1.419   .     S
C147   C155    1.377   .     S
C147   C177    1.469   .     S
C147   C180    1.360   .     D
C148   C159    1.360   .     S
C148   C169    1.449   .     S
C149   H150    1.140   .     S
C149   C159    1.409   .     D
C151   C162    1.384   .     S
C151   C171    1.452   .     S
C151   C178    1.333   1_545 D
C152   H153    1.140   .     S
C154   C172    1.491   .     S
C154   C173    1.401   .     D
C155   H156    1.140   .     S
C155   C162    1.395   1_565 D
C157   H158    1.140   .     S
C157   C173    1.443   .     S
C159   H160    1.140   .     S
C161   C166    1.443   .     D
C161   C168    1.464   .     S
C161   C893    1.401   .     S
C162   C155    1.395   1_545 D
C162   H163    1.140   .     S
C164   H165    1.140   .     S
C164   C170    1.410   .     S
C164   C171    1.396   .     D
C166   H167    1.140   .     S
C166   C169    1.335   .     S
C168   C170    1.420   .     D
C168   C175    1.344   .     S
C169   C901    1.444   .     D
C170   C902    1.445   .     S
C171   C172    1.420   .     S
C172   C175    1.402   .     D
C173   H174    1.140   .     S
C175   H176    1.140   .     S
C178   C151    1.333   1_565 D
C178   H179    1.140   .     S
C178   C180    1.385   .     S
C180   H181    1.140   .     S
C182   H183    1.140   .     S
Zr184  O186    2.251   .     S
Zr184  O187    2.078   .     S
Zr184  O193    2.293   .     S
Zr184  O1472   2.239   .     S
Zr184  O617    2.213   .     S
Zr184  O492    2.068   .     S
Zr184  O860    2.191   .     S
Zr185  O186    2.230   .     S
Zr185  O187    2.038   .     S
Zr185  O192    2.189   .     S
Zr185  O195    2.093   .     S
Zr185  O1471   2.066   .     S
Zr185  O508    2.327   .     S
Zr185  O1286   2.267   .     S
Zr185  O369    2.281   .     S
O186   Zr490   2.281   .     S
O187   Zr367   2.068   .     S
O188   C198    1.269   .     D
O188   Zr1405  2.267   .     S
O189   C198    1.285   .     S
O189   Zr855   2.191   1_565 S
O190   C200    1.243   .     D
O190   Zr306   2.213   .     S
O191   C200    1.260   .     S
O192   C243    1.264   .     D
O193   H194    1.110   .     S
O195   C238    1.308   .     S
C196   C200    1.469   .     S
C196   C210    1.353   .     S
C196   C213    1.398   .     D
O197   C238    1.290   .     D
C198   C199    1.456   .     S
C199   C201    1.418   .     S
C199   C218    1.443   .     D
C201   H202    1.140   1_565 S
C201   C206    1.362   .     D
H202   C201    1.140   1_545 S
O203   C243    1.433   .     S
O203   Zr368   2.327   .     S
C204   H205    1.140   1_655 S
C204   C209    1.373   .     D
C204   C213    1.397   .     S
H205   C204    1.140   1_455 S
C206   H207    1.140   .     S
C206   C215    1.419   .     S
C208   C216    1.377   .     S
C208   C238    1.469   .     S
C208   C241    1.360   .     D
C209   C220    1.360   .     S
C209   C230    1.449   1_655 S
C210   H211    1.140   .     S
C210   C220    1.409   .     D
C212   C223    1.384   .     S
C212   C232    1.452   .     S
C212   C239    1.333   1_565 D
C213   H214    1.140   .     S
C215   C233    1.491   .     S
C215   C234    1.401   .     D
C216   H217    1.140   .     S
C216   C223    1.395   1_545 D
C218   H219    1.140   .     S
C218   C234    1.443   .     S
C220   H221    1.140   .     S
C222   C227    1.443   .     D
C222   C229    1.464   .     S
C222   C954    1.401   .     S
C223   C216    1.395   1_565 D
C223   H224    1.140   .     S
C225   H226    1.140   .     S
C225   C231    1.410   .     S
C225   C232    1.396   .     D
C227   H228    1.140   .     S
C227   C230    1.335   .     S
C229   C231    1.420   .     D
C229   C236    1.344   .     S
C230   C209    1.449   1_455 S
C230   C962    1.444   .     D
C231   C963    1.445   .     S
C232   C233    1.420   .     S
C233   C236    1.402   .     D
C234   H235    1.140   .     S
C236   H237    1.140   .     S
C239   C212    1.333   1_545 D
C239   H240    1.140   .     S
C239   C241    1.385   .     S
C241   H242    1.140   .     S
C243   H244    1.140   .     S
Zr245  O247    2.251   .     S
Zr245  O248    2.078   .     S
Zr245  O254    2.293   .     S
Zr245  O1470   2.239   .     S
Zr245  O374    2.249   .     S
Zr245  O1348   2.191   .     S
Zr246  O247    2.230   .     S
Zr246  O248    2.038   .     S
Zr246  O253    2.189   .     S
Zr246  O256    2.093   .     S
Zr246  O1469   2.066   .     S
Zr246  O1042   2.267   .     S
Zr246  O674    2.281   .     S
O248   Zr672   2.068   .     S
O249   C259    1.269   .     D
O249   Zr1161  2.267   .     S
O250   C259    1.285   .     S
O250   Zr1343  2.191   .     S
O251   C261    1.243   .     D
O251   Zr489   2.213   .     S
O252   C261    1.260   .     S
O252   Zr367   2.249   .     S
O253   C304    1.264   .     D
O254   H255    1.110   .     S
O256   C299    1.308   .     S
C257   C261    1.469   .     S
C257   C271    1.353   .     S
C257   C274    1.398   .     D
O258   C299    1.290   .     D
C259   C260    1.456   .     S
C260   C262    1.418   .     S
C260   C279    1.443   .     D
C262   H263    1.140   .     S
C262   C267    1.362   .     D
O264   C304    1.433   .     S
O264   Zr673   2.327   .     S
C265   H266    1.140   .     S
C265   C270    1.373   .     D
C265   C274    1.397   .     S
C267   H268    1.140   .     S
C267   C276    1.419   .     S
C269   C277    1.377   .     S
C269   C299    1.469   .     S
C269   C302    1.360   .     D
C270   C281    1.360   .     S
C270   C291    1.449   .     S
C271   H272    1.140   .     S
C271   C281    1.409   .     D
C273   C284    1.384   .     S
C273   C293    1.452   .     S
C273   C300    1.333   .     D
C274   H275    1.140   .     S
C276   C294    1.491   .     S
C276   C295    1.401   .     D
C277   H278    1.140   .     S
C277   C284    1.395   .     D
C279   H280    1.140   .     S
C279   C295    1.443   .     S
C281   H282    1.140   .     S
C283   C288    1.443   .     D
C283   C290    1.464   .     S
C283   C1442   1.401   .     S
C284   H285    1.140   .     S
C286   H287    1.140   .     S
C286   C292    1.410   .     S
C286   C293    1.396   .     D
C288   H289    1.140   .     S
C288   C291    1.335   .     S
C290   C292    1.420   .     D
C290   C297    1.344   .     S
C291   C1450   1.444   .     D
C292   C1451   1.445   .     S
C293   C294    1.420   .     S
C294   C297    1.402   .     D
C295   H296    1.140   .     S
C297   H298    1.140   .     S
C300   H301    1.140   .     S
C300   C302    1.385   .     S
C302   H303    1.140   .     S
C304   H305    1.140   .     S
Zr306  O308    2.251   .     S
Zr306  O309    2.078   .     S
Zr306  O315    2.293   .     S
Zr306  O1468   2.239   .     S
Zr306  O435    2.249   .     S
Zr306  O1409   2.191   .     S
Zr307  O308    2.230   .     S
Zr307  O309    2.038   .     S
Zr307  O314    2.189   .     S
Zr307  O317    2.093   .     S
Zr307  O1467   2.066   .     S
Zr307  O1103   2.267   .     S
Zr307  O552    2.281   .     S
O309   Zr550   2.068   .     S
O310   C320    1.269   .     D
O310   Zr978   2.267   .     S
O311   C320    1.285   .     S
O311   Zr1404  2.191   .     S
O312   C322    1.243   .     D
O312   Zr611   2.213   .     S
O313   C322    1.260   .     S
O313   Zr428   2.249   .     S
O314   C365    1.264   .     D
O315   H316    1.110   .     S
O317   C360    1.308   .     S
C318   C322    1.469   .     S
C318   C332    1.353   .     S
C318   C335    1.398   .     D
O319   C360    1.290   .     D
C320   C321    1.456   .     S
C321   C323    1.418   .     S
C321   C340    1.443   .     D
C323   H324    1.140   .     S
C323   C328    1.362   .     D
O325   C365    1.433   .     S
O325   Zr551   2.327   .     S
C326   H327    1.140   1_545 S
C326   C331    1.373   .     D
C326   C335    1.397   .     S
H327   C326    1.140   1_565 S
C328   H329    1.140   .     S
C328   C337    1.419   .     S
C330   C338    1.377   .     S
C330   C360    1.469   .     S
C330   C363    1.360   .     D
C331   C342    1.360   .     S
C331   C352    1.449   1_545 S
C332   H333    1.140   .     S
C332   C342    1.409   .     D
C334   C345    1.384   .     S
C334   C354    1.452   .     S
C334   C361    1.333   .     D
C335   H336    1.140   .     S
C337   C355    1.491   .     S
C337   C356    1.401   .     D
C338   H339    1.140   .     S
C338   C345    1.395   .     D
C340   H341    1.140   .     S
C340   C356    1.443   .     S
C342   H343    1.140   .     S
C344   C349    1.443   .     D
C344   C351    1.464   .     S
C344   C1381   1.401   .     S
C345   H346    1.140   .     S
C347   H348    1.140   .     S
C347   C353    1.410   .     S
C347   C354    1.396   .     D
C349   H350    1.140   .     S
C349   C352    1.335   .     S
C351   C353    1.420   .     D
C351   C358    1.344   .     S
C352   C331    1.449   1_565 S
C352   C1389   1.444   .     D
C353   C1390   1.445   .     S
C354   C355    1.420   .     S
C355   C358    1.402   .     D
C356   H357    1.140   .     S
C358   H359    1.140   .     S
C361   H362    1.140   .     S
C361   C363    1.385   .     S
C363   H364    1.140   .     S
C365   H366    1.140   .     S
Zr367  O369    2.251   .     S
Zr367  O370    2.078   .     S
Zr367  O376    2.293   .     S
Zr367  O1472   2.239   .     S
Zr367  O1287   2.191   .     S
Zr368  O369    2.230   .     S
Zr368  O370    2.038   .     S
Zr368  O375    2.189   .     S
Zr368  O378    2.093   .     S
Zr368  O1471   2.066   .     S
Zr368  O1164   2.267   .     S
Zr368  O491    2.281   .     S
O370   Zr489   2.068   .     S
O371   C381    1.269   .     D
O371   Zr1039  2.267   .     S
O372   C381    1.285   .     S
O372   Zr1282  2.191   1_554 S
O373   C383    1.243   .     D
O373   Zr672   2.213   .     S
O374   C383    1.260   .     S
O375   C426    1.264   .     D
O376   H377    1.110   .     S
O378   C421    1.308   .     S
C379   C383    1.469   .     S
C379   C393    1.353   .     S
C379   C396    1.398   .     D
O380   C421    1.290   .     D
C381   C382    1.456   .     S
C382   C384    1.418   .     S
C382   C401    1.443   .     D
C384   H385    1.140   1_554 S
C384   C389    1.362   .     D
H385   C384    1.140   1_556 S
O386   C426    1.433   .     S
O386   Zr490   2.327   .     S
C387   H388    1.140   .     S
C387   C392    1.373   .     D
C387   C396    1.397   .     S
C389   H390    1.140   .     S
C389   C398    1.419   .     S
C391   C399    1.377   .     S
C391   C421    1.469   .     S
C391   C424    1.360   .     D
C392   C403    1.360   .     S
C392   C413    1.449   .     S
C393   H394    1.140   .     S
C393   C403    1.409   .     D
C395   C406    1.384   .     S
C395   C415    1.452   .     S
C395   C422    1.333   1_554 D
C396   H397    1.140   .     S
C398   C416    1.491   .     S
C398   C417    1.401   .     D
C399   H400    1.140   .     S
C399   C406    1.395   1_556 D
C401   H402    1.140   .     S
C401   C417    1.443   .     S
C403   H404    1.140   .     S
C405   C410    1.443   .     D
C405   C412    1.464   .     S
C405   C1259   1.401   .     S
C406   C399    1.395   1_554 D
C406   H407    1.140   .     S
C408   H409    1.140   .     S
C408   C414    1.410   .     S
C408   C415    1.396   .     D
C410   H411    1.140   .     S
C410   C413    1.335   .     S
C412   C414    1.420   .     D
C412   C419    1.344   .     S
C413   C1267   1.444   .     D
C414   C1268   1.445   .     S
C415   C416    1.420   .     S
C416   C419    1.402   .     D
C417   H418    1.140   .     S
C419   H420    1.140   .     S
C422   C395    1.333   1_556 D
C422   H423    1.140   .     S
C422   C424    1.385   .     S
C424   H425    1.140   .     S
C426   H427    1.140   .     S
Zr428  O430    2.251   .     S
Zr428  O431    2.078   .     S
Zr428  O437    2.293   .     S
Zr428  O1466   2.239   .     S
Zr428  O1226   2.191   .     S
Zr429  O430    2.230   .     S
Zr429  O431    2.038   .     S
Zr429  O436    2.189   .     S
Zr429  O439    2.093   .     S
Zr429  O1465   2.066   .     S
Zr429  O981    2.267   .     S
Zr429  O613    2.281   .     S
O431   Zr611   2.068   .     S
O432   C442    1.269   .     D
O432   Zr1100  2.267   .     S
O433   C442    1.285   .     S
O433   Zr1221  2.191   1_556 S
O434   C444    1.243   .     D
O434   Zr550   2.213   .     S
O435   C444    1.260   .     S
O436   C487    1.264   .     D
O437   H438    1.110   .     S
O439   C482    1.308   .     S
C440   C444    1.469   .     S
C440   C454    1.353   .     S
C440   C457    1.398   .     D
O441   C482    1.290   .     D
C442   C443    1.456   .     S
C443   C445    1.418   .     S
C443   C462    1.443   .     D
C445   H446    1.140   1_556 S
C445   C450    1.362   .     D
H446   C445    1.140   1_554 S
O447   C487    1.433   .     S
O447   Zr612   2.327   .     S
C448   H449    1.140   1_565 S
C448   C453    1.373   .     D
C448   C457    1.397   .     S
H449   C448    1.140   1_545 S
C450   H451    1.140   .     S
C450   C459    1.419   .     S
C452   C460    1.377   .     S
C452   C482    1.469   .     S
C452   C485    1.360   .     D
C453   C464    1.360   .     S
C453   C474    1.449   1_565 S
C454   H455    1.140   .     S
C454   C464    1.409   .     D
C456   C467    1.384   .     S
C456   C476    1.452   .     S
C456   C483    1.333   1_556 D
C457   H458    1.140   .     S
C459   C477    1.491   .     S
C459   C478    1.401   .     D
C460   H461    1.140   .     S
C460   C467    1.395   1_554 D
C462   H463    1.140   .     S
C462   C478    1.443   .     S
C464   H465    1.140   .     S
C466   C471    1.443   .     D
C466   C473    1.464   .     S
C466   C1320   1.401   .     S
C467   C460    1.395   1_556 D
C467   H468    1.140   .     S
C469   H470    1.140   .     S
C469   C475    1.410   .     S
C469   C476    1.396   .     D
C471   H472    1.140   .     S
C471   C474    1.335   .     S
C473   C475    1.420   .     D
C473   C480    1.344   .     S
C474   C453    1.449   1_545 S
C474   C1328   1.444   .     D
C475   C1329   1.445   .     S
C476   C477    1.420   .     S
C477   C480    1.402   .     D
C478   H479    1.140   .     S
C480   H481    1.140   .     S
C483   C456    1.333   1_554 D
C483   H484    1.140   .     S
C483   C485    1.385   .     S
C485   H486    1.140   .     S
C487   H488    1.140   .     S
Zr489  O491    2.251   .     S
Zr489  O492    2.078   .     S
Zr489  O498    2.293   .     S
Zr489  O1472   2.239   .     S
Zr489  O618    2.249   .     S
Zr489  O1165   2.191   .     S
Zr490  O491    2.230   .     S
Zr490  O492    2.038   .     S
Zr490  O497    2.189   .     S
Zr490  O500    2.093   .     S
Zr490  O1471   2.066   .     S
Zr490  O859    2.267   .     S
O493   C503    1.269   .     D
O493   Zr734   2.267   .     S
O494   C503    1.285   .     S
O494   Zr1160  2.191   .     S
O495   C505    1.243   .     D
O496   C505    1.260   .     S
O496   Zr611   2.249   .     S
O497   C548    1.264   .     D
O498   H499    1.110   .     S
O500   C543    1.308   .     S
C501   C505    1.469   .     S
C501   C515    1.353   .     S
C501   C518    1.398   .     D
O502   C543    1.290   .     D
C503   C504    1.456   .     S
C504   C506    1.418   .     S
C504   C523    1.443   .     D
C506   H507    1.140   .     S
C506   C511    1.362   .     D
O508   C548    1.433   .     S
C509   H510    1.140   .     S
C509   C514    1.373   .     D
C509   C518    1.397   .     S
C511   H512    1.140   .     S
C511   C520    1.419   .     S
C513   C521    1.377   .     S
C513   C543    1.469   .     S
C513   C546    1.360   .     D
C514   C525    1.360   .     S
C514   C535    1.449   .     S
C515   H516    1.140   .     S
C515   C525    1.409   .     D
C517   C528    1.384   .     S
C517   C537    1.452   .     S
C517   C544    1.333   .     D
C518   H519    1.140   .     S
C520   C538    1.491   .     S
C520   C539    1.401   .     D
C521   H522    1.140   .     S
C521   C528    1.395   .     D
C523   H524    1.140   .     S
C523   C539    1.443   .     S
C525   H526    1.140   .     S
C527   C532    1.443   .     D
C527   C534    1.464   .     S
C527   C1137   1.401   .     S
C528   H529    1.140   .     S
C530   H531    1.140   .     S
C530   C536    1.410   .     S
C530   C537    1.396   .     D
C532   H533    1.140   .     S
C532   C535    1.335   .     S
C534   C536    1.420   .     D
C534   C541    1.344   .     S
C535   C1145   1.444   .     D
C536   C1146   1.445   .     S
C537   C538    1.420   .     S
C538   C541    1.402   .     D
C539   H540    1.140   .     S
C541   H542    1.140   .     S
C544   H545    1.140   .     S
C544   C546    1.385   .     S
C546   H547    1.140   .     S
C548   H549    1.140   .     S
Zr550  O552    2.251   .     S
Zr550  O553    2.078   .     S
Zr550  O559    2.293   .     S
Zr550  O1468   2.239   .     S
Zr550  O679    2.249   .     S
Zr550  O1104   2.191   .     S
Zr551  O552    2.230   .     S
Zr551  O553    2.038   .     S
Zr551  O558    2.189   .     S
Zr551  O561    2.093   .     S
Zr551  O1467   2.066   .     S
Zr551  O798    2.267   .     S
O554   C564    1.269   .     D
O554   Zr917   2.267   .     S
O555   C564    1.285   .     S
O555   Zr1099  2.191   .     S
O556   C566    1.243   .     D
O557   C566    1.260   .     S
O557   Zr672   2.249   .     S
O558   C609    1.264   .     D
O559   H560    1.110   .     S
O561   C604    1.308   .     S
C562   C566    1.469   .     S
C562   C576    1.353   .     S
C562   C579    1.398   .     D
O563   C604    1.290   .     D
C564   C565    1.456   .     S
C565   C567    1.418   .     S
C565   C584    1.443   .     D
C567   H568    1.140   .     S
C567   C572    1.362   .     D
O569   C609    1.433   .     S
C570   H571    1.140   1_554 S
C570   C575    1.373   .     D
C570   C579    1.397   .     S
H571   C570    1.140   1_556 S
C572   H573    1.140   .     S
C572   C581    1.419   .     S
C574   C582    1.377   .     S
C574   C604    1.469   .     S
C574   C607    1.360   .     D
C575   C586    1.360   .     S
C575   C596    1.449   1_554 S
C576   H577    1.140   .     S
C576   C586    1.409   .     D
C578   C589    1.384   .     S
C578   C598    1.452   .     S
C578   C605    1.333   .     D
C579   H580    1.140   .     S
C581   C599    1.491   .     S
C581   C600    1.401   .     D
C582   H583    1.140   .     S
C582   C589    1.395   .     D
C584   H585    1.140   .     S
C584   C600    1.443   .     S
C586   H587    1.140   .     S
C588   C593    1.443   .     D
C588   C595    1.464   .     S
C588   C1198   1.401   .     S
C589   H590    1.140   .     S
C591   H592    1.140   .     S
C591   C597    1.410   .     S
C591   C598    1.396   .     D
C593   H594    1.140   .     S
C593   C596    1.335   .     S
C595   C597    1.420   .     D
C595   C602    1.344   .     S
C596   C575    1.449   1_556 S
C596   C1206   1.444   .     D
C597   C1207   1.445   .     S
C598   C599    1.420   .     S
C599   C602    1.402   .     D
C600   H601    1.140   .     S
C602   H603    1.140   .     S
C605   H606    1.140   .     S
C605   C607    1.385   .     S
C607   H608    1.140   .     S
C609   H610    1.140   .     S
Zr611  O613    2.251   .     S
Zr611  O614    2.078   .     S
Zr611  O620    2.293   .     S
Zr611  O1466   2.239   .     S
Zr611  O982    2.191   .     S
Zr612  O613    2.230   .     S
Zr612  O614    2.038   .     S
Zr612  O619    2.189   .     S
Zr612  O622    2.093   .     S
Zr612  O1465   2.066   .     S
Zr612  O737    2.267   .     S
O615   C625    1.269   .     D
O615   Zr856   2.267   .     S
O616   C625    1.285   .     S
O616   Zr977   2.191   1_455 S
O617   C627    1.243   .     D
O618   C627    1.260   .     S
O619   C670    1.264   .     D
O620   H621    1.110   .     S
O622   C665    1.308   .     S
C623   C627    1.469   .     S
C623   C637    1.353   .     S
C623   C640    1.398   .     D
O624   C665    1.290   .     D
C625   C626    1.456   .     S
C626   C628    1.418   .     S
C626   C645    1.443   .     D
C628   H629    1.140   1_455 S
C628   C633    1.362   .     D
H629   C628    1.140   1_655 S
O630   C670    1.433   .     S
C631   H632    1.140   .     S
C631   C636    1.373   .     D
C631   C640    1.397   .     S
C633   H634    1.140   .     S
C633   C642    1.419   .     S
C635   C643    1.377   .     S
C635   C665    1.469   .     S
C635   C668    1.360   .     D
C636   C647    1.360   .     S
C636   C657    1.449   .     S
C637   H638    1.140   .     S
C637   C647    1.409   .     D
C639   C650    1.384   .     S
C639   C659    1.452   .     S
C639   C666    1.333   1_455 D
C640   H641    1.140   .     S
C642   C660    1.491   .     S
C642   C661    1.401   .     D
C643   H644    1.140   .     S
C643   C650    1.395   1_655 D
C645   H646    1.140   .     S
C645   C661    1.443   .     S
C647   H648    1.140   .     S
C649   C654    1.443   .     D
C649   C656    1.464   .     S
C649   C1076   1.401   .     S
C650   C643    1.395   1_455 D
C650   H651    1.140   .     S
C652   H653    1.140   .     S
C652   C658    1.410   .     S
C652   C659    1.396   .     D
C654   H655    1.140   .     S
C654   C657    1.335   .     S
C656   C658    1.420   .     D
C656   C663    1.344   .     S
C657   C1084   1.444   .     D
C658   C1085   1.445   .     S
C659   C660    1.420   .     S
C660   C663    1.402   .     D
C661   H662    1.140   .     S
C663   H664    1.140   .     S
C666   C639    1.333   1_655 D
C666   H667    1.140   .     S
C666   C668    1.385   .     S
C668   H669    1.140   .     S
C670   H671    1.140   .     S
Zr672  O674    2.251   .     S
Zr672  O675    2.078   .     S
Zr672  O681    2.293   .     S
Zr672  O1470   2.239   .     S
Zr672  O1043   2.191   .     S
Zr673  O674    2.230   .     S
Zr673  O675    2.038   .     S
Zr673  O680    2.189   .     S
Zr673  O683    2.093   .     S
Zr673  O1469   2.066   .     S
Zr673  O920    2.267   .     S
O676   C686    1.269   .     D
O676   Zr795   2.267   .     S
O677   C686    1.285   .     S
O677   Zr1038  2.191   1_655 S
O678   C688    1.243   .     D
O679   C688    1.260   .     S
O680   C731    1.264   .     D
O681   H682    1.110   .     S
O683   C726    1.308   .     S
C684   C688    1.469   .     S
C684   C698    1.353   .     S
C684   C701    1.398   .     D
O685   C726    1.290   .     D
C686   C687    1.456   .     S
C687   C689    1.418   .     S
C687   C706    1.443   .     D
C689   H690    1.140   1_655 S
C689   C694    1.362   .     D
H690   C689    1.140   1_455 S
O691   C731    1.433   .     S
C692   H693    1.140   1_556 S
C692   C697    1.373   .     D
C692   C701    1.397   .     S
H693   C692    1.140   1_554 S
C694   H695    1.140   .     S
C694   C703    1.419   .     S
C696   C704    1.377   .     S
C696   C726    1.469   .     S
C696   C729    1.360   .     D
C697   C708    1.360   .     S
C697   C718    1.449   1_556 S
C698   H699    1.140   .     S
C698   C708    1.409   .     D
C700   C711    1.384   .     S
C700   C720    1.452   .     S
C700   C727    1.333   1_655 D
C701   H702    1.140   .     S
C703   C721    1.491   .     S
C703   C722    1.401   .     D
C704   H705    1.140   .     S
C704   C711    1.395   1_455 D
C706   H707    1.140   .     S
C706   C722    1.443   .     S
C708   H709    1.140   .     S
C710   C715    1.443   .     D
C710   C717    1.464   .     S
C710   C1015   1.401   .     S
C711   C704    1.395   1_655 D
C711   H712    1.140   .     S
C713   H714    1.140   .     S
C713   C719    1.410   .     S
C713   C720    1.396   .     D
C715   H716    1.140   .     S
C715   C718    1.335   .     S
C717   C719    1.420   .     D
C717   C724    1.344   .     S
C718   C697    1.449   1_554 S
C718   C1023   1.444   .     D
C719   C1024   1.445   .     S
C720   C721    1.420   .     S
C721   C724    1.402   .     D
C722   H723    1.140   .     S
C724   H725    1.140   .     S
C727   C700    1.333   1_455 D
C727   H728    1.140   .     S
C727   C729    1.385   .     S
C729   H730    1.140   .     S
C731   H732    1.140   .     S
Zr733  O735    2.251   .     S
Zr733  O736    2.078   .     S
Zr733  O742    2.293   .     S
Zr733  O1474   2.239   .     S
Zr733  O1227   2.213   .     S
Zr733  O1346   2.068   .     S
Zr733  O862    2.249   .     S
Zr734  O735    2.230   .     S
Zr734  O736    2.038   .     S
Zr734  O741    2.189   .     S
Zr734  O744    2.093   .     S
Zr734  O1473   2.066   .     S
Zr734  O1362   2.327   .     S
Zr734  O1162   2.281   .     S
O735   Zr1344  2.281   .     S
O736   Zr1160  2.068   .     S
O737   C747    1.269   .     D
O738   C747    1.285   .     S
O739   C749    1.243   .     D
O739   Zr977   2.213   .     S
O740   C749    1.260   1_455 S
O740   Zr855   2.249   .     S
O741   C792    1.264   .     D
O742   H743    1.110   .     S
O744   C787    1.308   .     S
C745   C749    1.469   .     S
C745   C759    1.353   .     S
C745   C762    1.398   .     D
O746   C787    1.290   .     D
C747   C748    1.456   .     S
C748   C750    1.418   .     S
C748   C767    1.443   .     D
C749   O740    1.260   1_655 S
C750   H751    1.140   .     S
C750   C755    1.362   .     D
O752   C792    1.433   .     S
O752   Zr1161  2.327   .     S
C753   H754    1.140   .     S
C753   C758    1.373   .     D
C753   C762    1.397   .     S
C755   H756    1.140   .     S
C755   C764    1.419   .     S
C757   C765    1.377   .     S
C757   C787    1.469   .     S
C757   C790    1.360   .     D
C758   C769    1.360   .     S
C758   C779    1.449   .     S
C759   H760    1.140   .     S
C759   C769    1.409   .     D
C761   C772    1.384   .     S
C761   C781    1.452   .     S
C761   C788    1.333   .     D
C762   H763    1.140   .     S
C764   C782    1.491   .     S
C764   C783    1.401   .     D
C765   H766    1.140   .     S
C765   C772    1.395   .     D
C767   H768    1.140   .     S
C767   C783    1.443   .     S
C769   H770    1.140   .     S
C771   C776    1.443   .     D
C771   C778    1.464   .     S
C772   H773    1.140   .     S
C774   H775    1.140   .     S
C774   C780    1.410   .     S
C774   C781    1.396   .     D
C776   H777    1.140   .     S
C776   C779    1.335   .     S
C778   C780    1.420   .     D
C778   C785    1.344   .     S
C781   C782    1.420   .     S
C782   C785    1.402   .     D
C783   H784    1.140   .     S
C785   H786    1.140   .     S
C788   H789    1.140   .     S
C788   C790    1.385   .     S
C790   H791    1.140   .     S
C792   H793    1.140   .     S
Zr794  O796    2.251   .     S
Zr794  O797    2.078   1_556 S
Zr794  O803    2.293   .     S
Zr794  O1476   2.239   1_655 S
Zr794  O1410   2.213   1_655 S
Zr794  O1285   2.068   .     S
Zr794  O923    2.249   .     S
Zr795  O796    2.230   1_554 S
Zr795  O797    2.038   .     S
Zr795  O802    2.189   .     S
Zr795  O805    2.093   .     S
Zr795  O1475   2.066   .     S
Zr795  O1301   2.327   .     S
Zr795  O1040   2.281   .     S
O796   Zr795   2.230   1_556 S
O796   Zr1283  2.281   .     S
O797   Zr794   2.078   1_554 S
O797   Zr1038  2.068   1_655 S
O798   C808    1.269   .     D
O799   C808    1.285   .     S
O800   C810    1.243   .     D
O800   Zr1099  2.213   1_554 S
O801   C810    1.260   .     S
O801   Zr916   2.249   .     S
O802   C853    1.264   .     D
O803   H804    1.110   .     S
O805   C848    1.308   .     S
C806   C810    1.469   .     S
C806   C820    1.353   .     S
C806   C823    1.398   .     D
O807   C848    1.290   1_556 D
C808   C809    1.456   .     S
C809   C811    1.418   .     S
C809   C828    1.443   .     D
C811   H812    1.140   .     S
C811   C816    1.362   .     D
O813   C853    1.433   .     S
O813   Zr1039  2.327   1_655 S
C814   H815    1.140   .     S
C814   C819    1.373   .     D
C814   C823    1.397   .     S
C816   H817    1.140   .     S
C816   C825    1.419   .     S
C818   C826    1.377   1_554 S
C818   C848    1.469   .     S
C818   C851    1.360   .     D
C819   C830    1.360   .     S
C819   C840    1.449   .     S
C820   H821    1.140   .     S
C820   C830    1.409   .     D
C822   C833    1.384   1_554 S
C822   C842    1.452   .     S
C822   C849    1.333   .     D
C823   H824    1.140   1_554 S
H824   C823    1.140   1_556 S
C825   C843    1.491   1_556 S
C825   C844    1.401   .     D
C826   C818    1.377   1_556 S
C826   H827    1.140   .     S
C826   C833    1.395   .     D
C828   H829    1.140   .     S
C828   C844    1.443   .     S
C830   H831    1.140   .     S
C832   C837    1.443   .     D
C832   C839    1.464   .     S
C833   C822    1.384   1_556 S
C833   H834    1.140   .     S
C835   H836    1.140   .     S
C835   C841    1.410   .     S
C835   C842    1.396   .     D
C837   H838    1.140   .     S
C837   C840    1.335   .     S
C839   C841    1.420   .     D
C839   C846    1.344   .     S
C842   C843    1.420   .     S
C843   C825    1.491   1_554 S
C843   C846    1.402   .     D
C844   H845    1.140   .     S
C846   H847    1.140   .     S
C848   O807    1.290   1_554 D
C849   H850    1.140   .     S
C849   C851    1.385   .     S
C851   H852    1.140   .     S
C853   H854    1.140   .     S
Zr855  O857    2.251   1_545 S
Zr855  O858    2.078   .     S
Zr855  O864    2.293   .     S
Zr855  O1478   2.239   1_455 S
Zr855  O1288   2.213   1_455 S
Zr855  O1407   2.068   1_545 S
Zr855  O189    2.191   1_545 S
Zr856  O857    2.230   1_545 S
Zr856  O858    2.038   .     S
Zr856  O863    2.189   .     S
Zr856  O866    2.093   .     S
Zr856  O1477   2.066   1_545 S
Zr856  O1423   2.327   1_545 S
Zr856  O979    2.281   .     S
O857   Zr856   2.230   1_565 S
O857   Zr855   2.251   1_565 S
O857   Zr1405  2.281   .     S
O858   Zr977   2.068   1_455 S
O859   C869    1.269   .     D
O860   C869    1.285   .     S
O861   C871    1.243   .     D
O861   Zr1160  2.213   .     S
O862   C871    1.260   .     S
O863   C914    1.264   1_545 D
O864   H865    1.110   .     S
O866   C909    1.308   .     S
C867   C871    1.469   .     S
C867   C881    1.353   .     S
C867   C884    1.398   .     D
O868   C909    1.290   .     D
C869   C870    1.456   .     S
C870   C872    1.418   .     S
C870   C889    1.443   .     D
C872   H873    1.140   .     S
C872   C877    1.362   .     D
O874   C914    1.433   .     S
O874   Zr978   2.327   1_455 S
C875   H876    1.140   .     S
C875   C880    1.373   .     D
C875   C884    1.397   .     S
C877   H878    1.140   .     S
C877   C886    1.419   .     S
C879   C887    1.377   .     S
C879   C909    1.469   .     S
C879   C912    1.360   .     D
C880   C891    1.360   .     S
C880   C901    1.449   .     S
C881   H882    1.140   .     S
C881   C891    1.409   .     D
C883   C894    1.384   .     S
C883   C903    1.452   .     S
C883   C910    1.333   .     D
C884   H885    1.140   .     S
C886   C904    1.491   .     S
C886   C905    1.401   .     D
C887   H888    1.140   .     S
C887   C894    1.395   .     D
C889   H890    1.140   .     S
C889   C905    1.443   .     S
C891   H892    1.140   .     S
C893   C898    1.443   .     D
C893   C900    1.464   .     S
C894   H895    1.140   .     S
C896   H897    1.140   .     S
C896   C902    1.410   .     S
C896   C903    1.396   .     D
C898   H899    1.140   .     S
C898   C901    1.335   .     S
C900   C902    1.420   .     D
C900   C907    1.344   .     S
C903   C904    1.420   .     S
C904   C907    1.402   .     D
C905   H906    1.140   .     S
C907   H908    1.140   .     S
C910   H911    1.140   .     S
C910   C912    1.385   .     S
C912   H913    1.140   .     S
C914   O863    1.264   1_565 D
C914   H915    1.140   .     S
Zr916  O918    2.251   1_565 S
Zr916  O919    2.078   1_554 S
Zr916  O925    2.293   .     S
Zr916  O1480   2.239   .     S
Zr916  O1349   2.213   .     S
Zr916  O1224   2.068   1_565 S
Zr916  O128    2.191   1_565 S
Zr917  O918    2.230   1_566 S
Zr917  O919    2.038   .     S
Zr917  O924    2.189   .     S
Zr917  O927    2.093   .     S
Zr917  O1479   2.066   1_565 S
Zr917  O1240   2.327   1_565 S
Zr917  O1101   2.281   .     S
O918   Zr917   2.230   1_544 S
O918   Zr916   2.251   1_545 S
O918   Zr1222  2.281   .     S
O919   Zr916   2.078   1_556 S
O919   Zr1099  2.068   .     S
O920   C930    1.269   .     D
O921   C930    1.285   .     S
O922   C932    1.243   .     D
O922   Zr1038  2.213   1_556 S
O923   C932    1.260   1_655 S
O924   C975    1.264   1_565 D
O925   H926    1.110   .     S
O927   C970    1.308   .     S
C928   C932    1.469   .     S
C928   C942    1.353   .     S
C928   C945    1.398   .     D
O929   C970    1.290   1_554 D
C930   C931    1.456   .     S
C931   C933    1.418   .     S
C931   C950    1.443   .     D
C932   O923    1.260   1_455 S
C933   H934    1.140   .     S
C933   C938    1.362   .     D
O935   C975    1.433   .     S
O935   Zr1100  2.327   .     S
C936   H937    1.140   .     S
C936   C941    1.373   .     D
C936   C945    1.397   .     S
C938   H939    1.140   .     S
C938   C947    1.419   .     S
C940   C948    1.377   1_556 S
C940   C970    1.469   .     S
C940   C973    1.360   .     D
C941   C952    1.360   .     S
C941   C962    1.449   .     S
C942   H943    1.140   .     S
C942   C952    1.409   .     D
C944   C955    1.384   1_556 S
C944   C964    1.452   .     S
C944   C971    1.333   .     D
C945   H946    1.140   1_556 S
H946   C945    1.140   1_554 S
C947   C965    1.491   1_554 S
C947   C966    1.401   .     D
C948   C940    1.377   1_554 S
C948   H949    1.140   .     S
C948   C955    1.395   .     D
C950   H951    1.140   .     S
C950   C966    1.443   .     S
C952   H953    1.140   .     S
C954   C959    1.443   .     D
C954   C961    1.464   .     S
C955   C944    1.384   1_554 S
C955   H956    1.140   .     S
C957   H958    1.140   .     S
C957   C963    1.410   .     S
C957   C964    1.396   .     D
C959   H960    1.140   .     S
C959   C962    1.335   .     S
C961   C963    1.420   .     D
C961   C968    1.344   .     S
C964   C965    1.420   .     S
C965   C947    1.491   1_556 S
C965   C968    1.402   .     D
C966   H967    1.140   .     S
C968   H969    1.140   .     S
C970   O929    1.290   1_556 D
C971   H972    1.140   .     S
C971   C973    1.385   .     S
C973   H974    1.140   .     S
C975   O924    1.264   1_545 D
C975   H976    1.140   .     S
Zr977  O979    2.251   1_655 S
Zr977  O980    2.078   1_545 S
Zr977  O986    2.293   .     S
Zr977  O1478   2.239   .     S
Zr977  O858    2.068   1_655 S
Zr977  O1106   2.249   .     S
Zr977  O616    2.191   1_655 S
Zr978  O979    2.230   1_665 S
Zr978  O980    2.038   .     S
Zr978  O985    2.189   .     S
Zr978  O988    2.093   .     S
Zr978  O1477   2.066   1_655 S
Zr978  O874    2.327   1_655 S
Zr978  O1406   2.281   .     S
O979   Zr978   2.230   1_445 S
O979   Zr977   2.251   1_455 S
O980   Zr977   2.078   1_565 S
O980   Zr1404  2.068   .     S
O981   C991    1.269   .     D
O982   C991    1.285   .     S
O983   C993    1.243   .     D
O983   Zr1221  2.213   1_565 S
O984   C993    1.260   1_556 S
O984   Zr1099  2.249   .     S
O985   C1036   1.264   1_655 D
O986   H987    1.110   .     S
O988   C1031   1.308   .     S
C989   C993    1.469   .     S
C989   C1003   1.353   .     S
C989   C1006   1.398   .     D
O990   C1031   1.290   1_545 D
C991   C992    1.456   .     S
C992   C994    1.418   .     S
C992   C1011   1.443   .     D
C993   O984    1.260   1_554 S
C994   H995    1.140   .     S
C994   C999    1.362   .     D
O996   C1036   1.433   .     S
O996   Zr1405  2.327   .     S
C997   H998    1.140   .     S
C997   C1002   1.373   .     D
C997   C1006   1.397   .     S
C999   H1000   1.140   .     S
C999   C1008   1.419   .     S
C1001  C1009   1.377   1_565 S
C1001  C1031   1.469   .     S
C1001  C1034   1.360   .     D
C1002  C1013   1.360   .     S
C1002  C1023   1.449   .     S
C1003  H1004   1.140   .     S
C1003  C1013   1.409   .     D
C1005  C1016   1.384   1_565 S
C1005  C1025   1.452   .     S
C1005  C1032   1.333   .     D
C1006  H1007   1.140   1_565 S
H1007  C1006   1.140   1_545 S
C1008  C1026   1.491   1_545 S
C1008  C1027   1.401   .     D
C1009  C1001   1.377   1_545 S
C1009  H1010   1.140   .     S
C1009  C1016   1.395   .     D
C1011  H1012   1.140   .     S
C1011  C1027   1.443   .     S
C1013  H1014   1.140   .     S
C1015  C1020   1.443   .     D
C1015  C1022   1.464   .     S
C1016  C1005   1.384   1_545 S
C1016  H1017   1.140   .     S
C1018  H1019   1.140   .     S
C1018  C1024   1.410   .     S
C1018  C1025   1.396   .     D
C1020  H1021   1.140   .     S
C1020  C1023   1.335   .     S
C1022  C1024   1.420   .     D
C1022  C1029   1.344   .     S
C1025  C1026   1.420   .     S
C1026  C1008   1.491   1_565 S
C1026  C1029   1.402   .     D
C1027  H1028   1.140   .     S
C1029  H1030   1.140   .     S
C1031  O990    1.290   1_565 D
C1032  H1033   1.140   .     S
C1032  C1034   1.385   .     S
C1034  H1035   1.140   .     S
C1036  O985    1.264   1_455 D
C1036  H1037   1.140   .     S
Zr1038 O1040   2.251   1_455 S
Zr1038 O1041   2.078   .     S
Zr1038 O1047   2.293   .     S
Zr1038 O1476   2.239   1_554 S
Zr1038 O922    2.213   1_554 S
Zr1038 O797    2.068   1_455 S
Zr1038 O1167   2.249   .     S
Zr1038 O677    2.191   1_455 S
Zr1039 O1040   2.230   1_455 S
Zr1039 O1041   2.038   .     S
Zr1039 O1046   2.189   .     S
Zr1039 O1049   2.093   .     S
Zr1039 O1475   2.066   1_455 S
Zr1039 O813    2.327   1_455 S
Zr1039 O1284   2.281   .     S
O1040  Zr1039  2.230   1_655 S
O1040  Zr1038  2.251   1_655 S
O1041  Zr1282  2.068   1_554 S
O1042  C1052   1.269   .     D
O1043  C1052   1.285   .     S
O1044  C1054   1.243   .     D
O1044  Zr1343  2.213   .     S
O1045  C1054   1.260   .     S
O1045  Zr1160  2.249   .     S
O1046  C1097   1.264   1_455 D
O1047  H1048   1.110   .     S
O1049  C1092   1.308   .     S
C1050  C1054   1.469   .     S
C1050  C1064   1.353   .     S
C1050  C1067   1.398   .     D
O1051  C1092   1.290   .     D
C1052  C1053   1.456   .     S
C1053  C1055   1.418   .     S
C1053  C1072   1.443   .     D
C1055  H1056   1.140   .     S
C1055  C1060   1.362   .     D
O1057  C1097   1.433   .     S
O1057  Zr1283  2.327   1_554 S
C1058  H1059   1.140   .     S
C1058  C1063   1.373   .     D
C1058  C1067   1.397   .     S
C1060  H1061   1.140   .     S
C1060  C1069   1.419   .     S
C1062  C1070   1.377   .     S
C1062  C1092   1.469   .     S
C1062  C1095   1.360   .     D
C1063  C1074   1.360   .     S
C1063  C1084   1.449   .     S
C1064  H1065   1.140   .     S
C1064  C1074   1.409   .     D
C1066  C1077   1.384   .     S
C1066  C1086   1.452   .     S
C1066  C1093   1.333   .     D
C1067  H1068   1.140   .     S
C1069  C1087   1.491   .     S
C1069  C1088   1.401   .     D
C1070  H1071   1.140   .     S
C1070  C1077   1.395   .     D
C1072  H1073   1.140   .     S
C1072  C1088   1.443   .     S
C1074  H1075   1.140   .     S
C1076  C1081   1.443   .     D
C1076  C1083   1.464   .     S
C1077  H1078   1.140   .     S
C1079  H1080   1.140   .     S
C1079  C1085   1.410   .     S
C1079  C1086   1.396   .     D
C1081  H1082   1.140   .     S
C1081  C1084   1.335   .     S
C1083  C1085   1.420   .     D
C1083  C1090   1.344   .     S
C1086  C1087   1.420   .     S
C1087  C1090   1.402   .     D
C1088  H1089   1.140   .     S
C1090  H1091   1.140   .     S
C1093  H1094   1.140   .     S
C1093  C1095   1.385   .     S
C1095  H1096   1.140   .     S
C1097  O1046   1.264   1_655 D
C1097  H1098   1.140   .     S
Zr1099 O1101   2.251   .     S
Zr1099 O1102   2.078   1_565 S
Zr1099 O1108   2.293   .     S
Zr1099 O1480   2.239   1_556 S
Zr1099 O800    2.213   1_556 S
Zr1100 O1101   2.230   1_545 S
Zr1100 O1102   2.038   .     S
Zr1100 O1107   2.189   .     S
Zr1100 O1110   2.093   .     S
Zr1100 O1479   2.066   .     S
Zr1100 O1223   2.281   .     S
O1101  Zr1100  2.230   1_565 S
O1102  Zr1099  2.078   1_545 S
O1102  Zr1221  2.068   1_556 S
O1103  C1113   1.269   .     D
O1104  C1113   1.285   .     S
O1105  C1115   1.243   .     D
O1105  Zr1404  2.213   1_545 S
O1106  C1115   1.260   .     S
O1107  C1158   1.264   .     D
O1108  H1109   1.110   .     S
O1110  C1153   1.308   .     S
C1111  C1115   1.469   .     S
C1111  C1125   1.353   .     S
C1111  C1128   1.398   .     D
O1112  C1153   1.290   1_565 D
C1113  C1114   1.456   .     S
C1114  C1116   1.418   .     S
C1114  C1133   1.443   .     D
C1116  H1117   1.140   .     S
C1116  C1121   1.362   .     D
O1118  C1158   1.433   .     S
O1118  Zr1222  2.327   1_556 S
C1119  H1120   1.140   .     S
C1119  C1124   1.373   .     D
C1119  C1128   1.397   .     S
C1121  H1122   1.140   .     S
C1121  C1130   1.419   .     S
C1123  C1131   1.377   1_545 S
C1123  C1153   1.469   .     S
C1123  C1156   1.360   .     D
C1124  C1135   1.360   .     S
C1124  C1145   1.449   .     S
C1125  H1126   1.140   .     S
C1125  C1135   1.409   .     D
C1127  C1138   1.384   1_545 S
C1127  C1147   1.452   .     S
C1127  C1154   1.333   .     D
C1128  H1129   1.140   1_545 S
H1129  C1128   1.140   1_565 S
C1130  C1148   1.491   1_565 S
C1130  C1149   1.401   .     D
C1131  C1123   1.377   1_565 S
C1131  H1132   1.140   .     S
C1131  C1138   1.395   .     D
C1133  H1134   1.140   .     S
C1133  C1149   1.443   .     S
C1135  H1136   1.140   .     S
C1137  C1142   1.443   .     D
C1137  C1144   1.464   .     S
C1138  C1127   1.384   1_565 S
C1138  H1139   1.140   .     S
C1140  H1141   1.140   .     S
C1140  C1146   1.410   .     S
C1140  C1147   1.396   .     D
C1142  H1143   1.140   .     S
C1142  C1145   1.335   .     S
C1144  C1146   1.420   .     D
C1144  C1151   1.344   .     S
C1147  C1148   1.420   .     S
C1148  C1130   1.491   1_545 S
C1148  C1151   1.402   .     D
C1149  H1150   1.140   .     S
C1151  H1152   1.140   .     S
C1153  O1112   1.290   1_545 D
C1154  H1155   1.140   .     S
C1154  C1156   1.385   .     S
C1156  H1157   1.140   .     S
C1158  H1159   1.140   .     S
Zr1160 O1162   2.251   .     S
Zr1160 O1163   2.078   .     S
Zr1160 O1169   2.293   .     S
Zr1160 O1474   2.239   .     S
Zr1161 O1162   2.230   .     S
Zr1161 O1163   2.038   .     S
Zr1161 O1168   2.189   .     S
Zr1161 O1171   2.093   .     S
Zr1161 O1473   2.066   .     S
Zr1161 O1345   2.281   .     S
O1163  Zr1343  2.068   .     S
O1164  C1174   1.269   .     D
O1165  C1174   1.285   .     S
O1166  C1176   1.243   .     D
O1166  Zr1282  2.213   .     S
O1167  C1176   1.260   1_554 S
O1168  C1219   1.264   .     D
O1169  H1170   1.110   .     S
O1171  C1214   1.308   .     S
C1172  C1176   1.469   .     S
C1172  C1186   1.353   .     S
C1172  C1189   1.398   .     D
O1173  C1214   1.290   .     D
C1174  C1175   1.456   .     S
C1175  C1177   1.418   .     S
C1175  C1194   1.443   .     D
C1176  O1167   1.260   1_556 S
C1177  H1178   1.140   .     S
C1177  C1182   1.362   .     D
O1179  C1219   1.433   .     S
O1179  Zr1344  2.327   .     S
C1180  H1181   1.140   .     S
C1180  C1185   1.373   .     D
C1180  C1189   1.397   .     S
C1182  H1183   1.140   .     S
C1182  C1191   1.419   .     S
C1184  C1192   1.377   .     S
C1184  C1214   1.469   .     S
C1184  C1217   1.360   .     D
C1185  C1196   1.360   .     S
C1185  C1206   1.449   .     S
C1186  H1187   1.140   .     S
C1186  C1196   1.409   .     D
C1188  C1199   1.384   .     S
C1188  C1208   1.452   .     S
C1188  C1215   1.333   .     D
C1189  H1190   1.140   .     S
C1191  C1209   1.491   .     S
C1191  C1210   1.401   .     D
C1192  H1193   1.140   .     S
C1192  C1199   1.395   .     D
C1194  H1195   1.140   .     S
C1194  C1210   1.443   .     S
C1196  H1197   1.140   .     S
C1198  C1203   1.443   .     D
C1198  C1205   1.464   .     S
C1199  H1200   1.140   .     S
C1201  H1202   1.140   .     S
C1201  C1207   1.410   .     S
C1201  C1208   1.396   .     D
C1203  H1204   1.140   .     S
C1203  C1206   1.335   .     S
C1205  C1207   1.420   .     D
C1205  C1212   1.344   .     S
C1208  C1209   1.420   .     S
C1209  C1212   1.402   .     D
C1210  H1211   1.140   .     S
C1212  H1213   1.140   .     S
C1215  H1216   1.140   .     S
C1215  C1217   1.385   .     S
C1217  H1218   1.140   .     S
C1219  H1220   1.140   .     S
Zr1221 O1223   2.251   1_554 S
Zr1221 O1224   2.078   .     S
Zr1221 O1230   2.293   .     S
Zr1221 O1480   2.239   1_545 S
Zr1221 O983    2.213   1_545 S
Zr1221 O1102   2.068   1_554 S
Zr1221 O1350   2.249   .     S
Zr1221 O433    2.191   1_554 S
Zr1222 O1223   2.230   1_554 S
Zr1222 O1224   2.038   .     S
Zr1222 O1229   2.189   .     S
Zr1222 O1232   2.093   .     S
Zr1222 O1479   2.066   1_554 S
Zr1222 O1118   2.327   1_554 S
O1223  Zr1222  2.230   1_556 S
O1223  Zr1221  2.251   1_556 S
O1224  Zr916   2.068   1_545 S
O1225  C1235   1.269   .     D
O1226  C1235   1.285   .     S
O1227  C1237   1.243   .     D
O1228  C1237   1.260   .     S
O1228  Zr1343  2.249   .     S
O1229  C1280   1.264   1_554 D
O1230  H1231   1.110   .     S
O1232  C1275   1.308   .     S
C1233  C1237   1.469   .     S
C1233  C1247   1.353   .     S
C1233  C1250   1.398   .     D
O1234  C1275   1.290   .     D
C1235  C1236   1.456   .     S
C1236  C1238   1.418   .     S
C1236  C1255   1.443   .     D
C1238  H1239   1.140   .     S
C1238  C1243   1.362   .     D
O1240  C1280   1.433   .     S
O1240  Zr917   2.327   1_545 S
C1241  H1242   1.140   .     S
C1241  C1246   1.373   .     D
C1241  C1250   1.397   .     S
C1243  H1244   1.140   .     S
C1243  C1252   1.419   .     S
C1245  C1253   1.377   .     S
C1245  C1275   1.469   .     S
C1245  C1278   1.360   .     D
C1246  C1257   1.360   .     S
C1246  C1267   1.449   .     S
C1247  H1248   1.140   .     S
C1247  C1257   1.409   .     D
C1249  C1260   1.384   .     S
C1249  C1269   1.452   .     S
C1249  C1276   1.333   .     D
C1250  H1251   1.140   .     S
C1252  C1270   1.491   .     S
C1252  C1271   1.401   .     D
C1253  H1254   1.140   .     S
C1253  C1260   1.395   .     D
C1255  H1256   1.140   .     S
C1255  C1271   1.443   .     S
C1257  H1258   1.140   .     S
C1259  C1264   1.443   .     D
C1259  C1266   1.464   .     S
C1260  H1261   1.140   .     S
C1262  H1263   1.140   .     S
C1262  C1268   1.410   .     S
C1262  C1269   1.396   .     D
C1264  H1265   1.140   .     S
C1264  C1267   1.335   .     S
C1266  C1268   1.420   .     D
C1266  C1273   1.344   .     S
C1269  C1270   1.420   .     S
C1270  C1273   1.402   .     D
C1271  H1272   1.140   .     S
C1273  H1274   1.140   .     S
C1276  H1277   1.140   .     S
C1276  C1278   1.385   .     S
C1278  H1279   1.140   .     S
C1280  O1229   1.264   1_556 D
C1280  H1281   1.140   .     S
Zr1282 O1284   2.251   1_556 S
Zr1282 O1285   2.078   1_455 S
Zr1282 O1291   2.293   .     S
Zr1282 O1476   2.239   .     S
Zr1282 O1041   2.068   1_556 S
Zr1282 O1411   2.249   .     S
Zr1282 O372    2.191   1_556 S
Zr1283 O1284   2.230   1_656 S
Zr1283 O1285   2.038   .     S
Zr1283 O1290   2.189   .     S
Zr1283 O1293   2.093   .     S
Zr1283 O1475   2.066   1_556 S
Zr1283 O1057   2.327   1_556 S
O1284  Zr1283  2.230   1_454 S
O1284  Zr1282  2.251   1_554 S
O1285  Zr1282  2.078   1_655 S
O1286  C1296   1.269   .     D
O1287  C1296   1.285   .     S
O1288  C1298   1.243   .     D
O1288  Zr855   2.213   1_655 S
O1289  C1298   1.260   1_565 S
O1289  Zr1404  2.249   .     S
O1290  C1341   1.264   1_556 D
O1291  H1292   1.110   .     S
O1293  C1336   1.308   .     S
C1294  C1298   1.469   .     S
C1294  C1308   1.353   .     S
C1294  C1311   1.398   .     D
O1295  C1336   1.290   1_455 D
C1296  C1297   1.456   .     S
C1297  C1299   1.418   .     S
C1297  C1316   1.443   .     D
C1298  O1289   1.260   1_545 S
C1299  H1300   1.140   .     S
C1299  C1304   1.362   .     D
O1301  C1341   1.433   .     S
C1302  H1303   1.140   .     S
C1302  C1307   1.373   .     D
C1302  C1311   1.397   .     S
C1304  H1305   1.140   .     S
C1304  C1313   1.419   .     S
C1306  C1314   1.377   1_655 S
C1306  C1336   1.469   .     S
C1306  C1339   1.360   .     D
C1307  C1318   1.360   .     S
C1307  C1328   1.449   .     S
C1308  H1309   1.140   .     S
C1308  C1318   1.409   .     D
C1310  C1321   1.384   1_655 S
C1310  C1330   1.452   .     S
C1310  C1337   1.333   .     D
C1311  H1312   1.140   1_655 S
H1312  C1311   1.140   1_455 S
C1313  C1331   1.491   1_455 S
C1313  C1332   1.401   .     D
C1314  C1306   1.377   1_455 S
C1314  H1315   1.140   .     S
C1314  C1321   1.395   .     D
C1316  H1317   1.140   .     S
C1316  C1332   1.443   .     S
C1318  H1319   1.140   .     S
C1320  C1325   1.443   .     D
C1320  C1327   1.464   .     S
C1321  C1310   1.384   1_455 S
C1321  H1322   1.140   .     S
C1323  H1324   1.140   .     S
C1323  C1329   1.410   .     S
C1323  C1330   1.396   .     D
C1325  H1326   1.140   .     S
C1325  C1328   1.335   .     S
C1327  C1329   1.420   .     D
C1327  C1334   1.344   .     S
C1330  C1331   1.420   .     S
C1331  C1313   1.491   1_655 S
C1331  C1334   1.402   .     D
C1332  H1333   1.140   .     S
C1334  H1335   1.140   .     S
C1336  O1295   1.290   1_655 D
C1337  H1338   1.140   .     S
C1337  C1339   1.385   .     S
C1339  H1340   1.140   .     S
C1341  O1290   1.264   1_554 D
C1341  H1342   1.140   .     S
Zr1343 O1345   2.251   .     S
Zr1343 O1346   2.078   .     S
Zr1343 O1352   2.293   .     S
Zr1343 O1474   2.239   .     S
Zr1344 O1345   2.230   .     S
Zr1344 O1346   2.038   .     S
Zr1344 O1351   2.189   .     S
Zr1344 O1354   2.093   .     S
Zr1344 O1473   2.066   .     S
O1347  C1357   1.269   .     D
O1348  C1357   1.285   .     S
O1349  C1359   1.243   .     D
O1350  C1359   1.260   1_545 S
O1351  C1402   1.264   .     D
O1352  H1353   1.110   .     S
O1354  C1397   1.308   .     S
C1355  C1359   1.469   .     S
C1355  C1369   1.353   .     S
C1355  C1372   1.398   .     D
O1356  C1397   1.290   .     D
C1357  C1358   1.456   .     S
C1358  C1360   1.418   .     S
C1358  C1377   1.443   .     D
C1359  O1350   1.260   1_565 S
C1360  H1361   1.140   .     S
C1360  C1365   1.362   .     D
O1362  C1402   1.433   .     S
C1363  H1364   1.140   .     S
C1363  C1368   1.373   .     D
C1363  C1372   1.397   .     S
C1365  H1366   1.140   .     S
C1365  C1374   1.419   .     S
C1367  C1375   1.377   .     S
C1367  C1397   1.469   .     S
C1367  C1400   1.360   .     D
C1368  C1379   1.360   .     S
C1368  C1389   1.449   .     S
C1369  H1370   1.140   .     S
C1369  C1379   1.409   .     D
C1371  C1382   1.384   .     S
C1371  C1391   1.452   .     S
C1371  C1398   1.333   .     D
C1372  H1373   1.140   .     S
C1374  C1392   1.491   .     S
C1374  C1393   1.401   .     D
C1375  H1376   1.140   .     S
C1375  C1382   1.395   .     D
C1377  H1378   1.140   .     S
C1377  C1393   1.443   .     S
C1379  H1380   1.140   .     S
C1381  C1386   1.443   .     D
C1381  C1388   1.464   .     S
C1382  H1383   1.140   .     S
C1384  H1385   1.140   .     S
C1384  C1390   1.410   .     S
C1384  C1391   1.396   .     D
C1386  H1387   1.140   .     S
C1386  C1389   1.335   .     S
C1388  C1390   1.420   .     D
C1388  C1395   1.344   .     S
C1391  C1392   1.420   .     S
C1392  C1395   1.402   .     D
C1393  H1394   1.140   .     S
C1395  H1396   1.140   .     S
C1398  H1399   1.140   .     S
C1398  C1400   1.385   .     S
C1400  H1401   1.140   .     S
C1402  H1403   1.140   .     S
Zr1404 O1406   2.251   .     S
Zr1404 O1407   2.078   1_655 S
Zr1404 O1413   2.293   .     S
Zr1404 O1478   2.239   1_565 S
Zr1404 O1105   2.213   1_565 S
Zr1405 O1406   2.230   1_455 S
Zr1405 O1407   2.038   .     S
Zr1405 O1412   2.189   .     S
Zr1405 O1415   2.093   .     S
Zr1405 O1477   2.066   .     S
O1406  Zr1405  2.230   1_655 S
O1407  Zr1404  2.078   1_455 S
O1407  Zr855   2.068   1_565 S
O1408  C1418   1.269   .     D
O1409  C1418   1.285   .     S
O1410  C1420   1.243   .     D
O1410  Zr794   2.213   1_455 S
O1411  C1420   1.260   .     S
O1412  C1463   1.264   .     D
O1413  H1414   1.110   .     S
O1415  C1458   1.308   .     S
C1416  C1420   1.469   .     S
C1416  C1430   1.353   .     S
C1416  C1433   1.398   .     D
O1417  C1458   1.290   1_655 D
C1418  C1419   1.456   .     S
C1419  C1421   1.418   .     S
C1419  C1438   1.443   .     D
C1421  H1422   1.140   .     S
C1421  C1426   1.362   .     D
O1423  C1463   1.433   .     S
O1423  Zr856   2.327   1_565 S
C1424  H1425   1.140   .     S
C1424  C1429   1.373   .     D
C1424  C1433   1.397   .     S
C1426  H1427   1.140   .     S
C1426  C1435   1.419   .     S
C1428  C1436   1.377   1_455 S
C1428  C1458   1.469   .     S
C1428  C1461   1.360   .     D
C1429  C1440   1.360   .     S
C1429  C1450   1.449   .     S
C1430  H1431   1.140   .     S
C1430  C1440   1.409   .     D
C1432  C1443   1.384   1_455 S
C1432  C1452   1.452   .     S
C1432  C1459   1.333   .     D
C1433  H1434   1.140   1_455 S
H1434  C1433   1.140   1_655 S
C1435  C1453   1.491   1_655 S
C1435  C1454   1.401   .     D
C1436  C1428   1.377   1_655 S
C1436  H1437   1.140   .     S
C1436  C1443   1.395   .     D
C1438  H1439   1.140   .     S
C1438  C1454   1.443   .     S
C1440  H1441   1.140   .     S
C1442  C1447   1.443   .     D
C1442  C1449   1.464   .     S
C1443  C1432   1.384   1_655 S
C1443  H1444   1.140   .     S
C1445  H1446   1.140   .     S
C1445  C1451   1.410   .     S
C1445  C1452   1.396   .     D
C1447  H1448   1.140   .     S
C1447  C1450   1.335   .     S
C1449  C1451   1.420   .     D
C1449  C1456   1.344   .     S
C1452  C1453   1.420   .     S
C1453  C1435   1.491   1_455 S
C1453  C1456   1.402   .     D
C1454  H1455   1.140   .     S
C1456  H1457   1.140   .     S
C1458  O1417   1.290   1_455 D
C1459  H1460   1.140   .     S
C1459  C1461   1.385   .     S
C1461  H1462   1.140   .     S
C1463  H1464   1.140   .     S
O1475  Zr1039  2.066   1_655 S
O1475  Zr1283  2.066   1_554 S
O1476  Zr794   2.239   1_455 S
O1476  Zr1038  2.239   1_556 S
O1477  Zr856   2.066   1_565 S
O1477  Zr978   2.066   1_455 S
O1478  Zr855   2.239   1_655 S
O1478  Zr1404  2.239   1_545 S
O1479  Zr917   2.066   1_545 S
O1479  Zr1222  2.066   1_556 S
O1480  Zr1099  2.239   1_554 S
O1480  Zr1221  2.239   1_565 S
