data_XIJVIY02

_audit_creation_method RASPA-1.0
_audit_creation_date 2020-11-2
_audit_author_name 'Rocio Bueno-Perez'

_cell_length_a    32.767
_cell_length_b    32.767
_cell_length_c    32.767
_cell_angle_alpha 90
_cell_angle_beta  90
_cell_angle_gamma 90
_cell_volume      35181.2

_symmetry_cell_setting          triclinic
_symmetry_space_group_name_Hall 'P 1'
_symmetry_space_group_name_H-M  'P 1'
_symmetry_Int_Tables_number     1

_symmetry_equiv_pos_as_xyz 'x,y,z'

loop_
_atom_site_label
_atom_site_type_symbol
_atom_site_fract_x
_atom_site_fract_y
_atom_site_fract_z
_atom_site_charge
C1       C      0.530800000000     0.223300000000     0.248200000000     0          
C2       C      0.530800000000     0.723300000000     0.748200000000     0          
C3       C      0.511300000000     0.648900000000     0.697200000000     0          
C4       C      0.509200000000     0.617700000000     0.667100000000     0          
H5       H      0.520600000000     0.642500000000     0.723900000000     0          
H6       H      0.514300000000     0.590100000000     0.674300000000     0          
C7       C      0.030800000000     0.223300000000     0.748200000000     0          
C8       C      0.030800000000     0.723300000000     0.248200000000     0          
C9       C      0.011300000000     0.648900000000     0.197200000000     0          
C10      C      0.009200000000     0.617700000000     0.167100000000     0          
H11      H      0.020600000000     0.642500000000     0.223900000000     0          
H12      H      0.014300000000     0.590100000000     0.174300000000     0          
C13      C      0.488700000000     0.351100000000     0.697200000000     0          
C14      C      0.490800000000     0.382300000000     0.667100000000     0          
H15      H      0.479400000000     0.357500000000     0.723900000000     0          
H16      H      0.485700000000     0.409900000000     0.674300000000     0          
C17      C      0.969200000000     0.776700000000     0.748200000000     0          
C18      C      0.944800000000     0.799300000000     0.747800000000     0          
C19      C      0.988700000000     0.851100000000     0.697200000000     0          
C20      C      0.990800000000     0.882300000000     0.667100000000     0          
H21      H      0.941000000000     0.809400000000     0.719900000000     0          
H22      H      0.952000000000     0.822200000000     0.765700000000     0          
H23      H      0.919400000000     0.786800000000     0.757400000000     0          
H24      H      0.979400000000     0.857500000000     0.723900000000     0          
H25      H      0.985700000000     0.909900000000     0.674300000000     0          
C26      C      0.969200000000     0.276700000000     0.248200000000     0          
C27      C      0.944800000000     0.299300000000     0.247800000000     0          
C28      C      0.988700000000     0.351100000000     0.197200000000     0          
C29      C      0.990800000000     0.382300000000     0.167100000000     0          
H30      H      0.941000000000     0.309400000000     0.219900000000     0          
H31      H      0.952000000000     0.322200000000     0.265700000000     0          
H32      H      0.919400000000     0.286800000000     0.257400000000     0          
H33      H      0.979400000000     0.357500000000     0.223900000000     0          
H34      H      0.985700000000     0.409900000000     0.174300000000     0          
C35      C      0.469200000000     0.223300000000     0.751800000000     0          
C36      C      0.444800000000     0.200700000000     0.752200000000     0          
C37      C      0.488700000000     0.148900000000     0.802800000000     0          
C38      C      0.490800000000     0.117700000000     0.832900000000     0          
H39      H      0.441000000000     0.190600000000     0.780100000000     0          
H40      H      0.452000000000     0.177800000000     0.734300000000     0          
H41      H      0.419400000000     0.213200000000     0.742600000000     0          
H42      H      0.479400000000     0.142500000000     0.776100000000     0          
H43      H      0.485700000000     0.090100000000     0.825700000000     0          
C44      C      0.469200000000     0.723300000000     0.251800000000     0          
C45      C      0.444800000000     0.700700000000     0.252200000000     0          
H46      H      0.441000000000     0.690600000000     0.280100000000     0          
H47      H      0.452000000000     0.677800000000     0.234300000000     0          
H48      H      0.419400000000     0.713200000000     0.242600000000     0          
C49      C      0.511300000000     0.851100000000     0.802800000000     0          
C50      C      0.509200000000     0.882300000000     0.832900000000     0          
H51      H      0.520600000000     0.857500000000     0.776100000000     0          
H52      H      0.514300000000     0.909900000000     0.825700000000     0          
C53      C      0.011300000000     0.351100000000     0.802800000000     0          
C54      C      0.009200000000     0.382300000000     0.832900000000     0          
H55      H      0.020600000000     0.357500000000     0.776100000000     0          
H56      H      0.014300000000     0.409900000000     0.825700000000     0          
C57      C      0.197200000000     0.011300000000     0.648900000000     0          
C58      C      0.167100000000     0.009200000000     0.617700000000     0          
H59      H      0.223900000000     0.020600000000     0.642500000000     0          
H60      H      0.174300000000     0.014300000000     0.590100000000     0          
C61      C      0.748200000000     0.530800000000     0.723300000000     0          
C62      C      0.747800000000     0.555200000000     0.700700000000     0          
C63      C      0.697200000000     0.511300000000     0.648900000000     0          
C64      C      0.667100000000     0.509200000000     0.617700000000     0          
H65      H      0.719900000000     0.559000000000     0.690600000000     0          
H66      H      0.765700000000     0.548000000000     0.677800000000     0          
H67      H      0.757400000000     0.580600000000     0.713200000000     0          
H68      H      0.723900000000     0.520600000000     0.642500000000     0          
H69      H      0.674300000000     0.514300000000     0.590100000000     0          
C70      C      0.697200000000     0.011300000000     0.148900000000     0          
C71      C      0.667100000000     0.009200000000     0.117700000000     0          
H72      H      0.723900000000     0.020600000000     0.142500000000     0          
H73      H      0.674300000000     0.014300000000     0.090100000000     0          
C74      C      0.697200000000     0.488700000000     0.351100000000     0          
C75      C      0.667100000000     0.490800000000     0.382300000000     0          
H76      H      0.723900000000     0.479400000000     0.357500000000     0          
H77      H      0.674300000000     0.485700000000     0.409900000000     0          
C78      C      0.751800000000     0.469200000000     0.223300000000     0          
C79      C      0.802800000000     0.488700000000     0.148900000000     0          
C80      C      0.832900000000     0.490800000000     0.117700000000     0          
H81      H      0.776100000000     0.479400000000     0.142500000000     0          
H82      H      0.825700000000     0.485700000000     0.090100000000     0          
C83      C      0.751800000000     0.969200000000     0.723300000000     0          
C84      C      0.802800000000     0.988700000000     0.648900000000     0          
C85      C      0.832900000000     0.990800000000     0.617700000000     0          
H86      H      0.776100000000     0.979400000000     0.642500000000     0          
H87      H      0.825700000000     0.985700000000     0.590100000000     0          
C88      C      0.251800000000     0.469200000000     0.723300000000     0          
C89      C      0.251800000000     0.969200000000     0.223300000000     0          
C90      C      0.302800000000     0.988700000000     0.148900000000     0          
C91      C      0.332900000000     0.990800000000     0.117700000000     0          
H92      H      0.276100000000     0.979400000000     0.142500000000     0          
H93      H      0.325700000000     0.985700000000     0.090100000000     0          
C94      C      0.802800000000     0.511300000000     0.851100000000     0          
C95      C      0.832900000000     0.509200000000     0.882300000000     0          
H96      H      0.776100000000     0.520600000000     0.857500000000     0          
H97      H      0.825700000000     0.514300000000     0.909900000000     0          
C98      C      0.751800000000     0.030800000000     0.276700000000     0          
C99      C      0.251800000000     0.530800000000     0.276700000000     0          
C100     C      0.251800000000     0.030800000000     0.776700000000     0          
C101     C      0.223300000000     0.248200000000     0.530800000000     0          
C102     C      0.200700000000     0.247800000000     0.555200000000     0          
C103     C      0.148900000000     0.197200000000     0.511300000000     0          
C104     C      0.117700000000     0.167100000000     0.509200000000     0          
H105     H      0.190600000000     0.219900000000     0.559000000000     0          
H106     H      0.177800000000     0.265700000000     0.548000000000     0          
H107     H      0.213200000000     0.257400000000     0.580600000000     0          
H108     H      0.142500000000     0.223900000000     0.520600000000     0          
H109     H      0.090100000000     0.174300000000     0.514300000000     0          
C110     C      0.223300000000     0.748200000000     0.030800000000     0          
C111     C      0.723300000000     0.248200000000     0.030800000000     0          
C112     C      0.723300000000     0.748200000000     0.530800000000     0          
C113     C      0.700700000000     0.747800000000     0.555200000000     0          
C114     C      0.648900000000     0.697200000000     0.511300000000     0          
C115     C      0.617700000000     0.667100000000     0.509200000000     0          
H116     H      0.690600000000     0.719900000000     0.559000000000     0          
H117     H      0.677800000000     0.765700000000     0.548000000000     0          
H118     H      0.713200000000     0.757400000000     0.580600000000     0          
H119     H      0.642500000000     0.723900000000     0.520600000000     0          
H120     H      0.590100000000     0.674300000000     0.514300000000     0          
C121     C      0.851100000000     0.197200000000     0.488700000000     0          
C122     C      0.882300000000     0.167100000000     0.490800000000     0          
H123     H      0.857500000000     0.223900000000     0.479400000000     0          
H124     H      0.909900000000     0.174300000000     0.485700000000     0          
C125     C      0.776700000000     0.748200000000     0.969200000000     0          
C126     C      0.276700000000     0.248200000000     0.969200000000     0          
C127     C      0.351100000000     0.697200000000     0.488700000000     0          
C128     C      0.382300000000     0.667100000000     0.490800000000     0          
H129     H      0.357500000000     0.723900000000     0.479400000000     0          
H130     H      0.409900000000     0.674300000000     0.485700000000     0          
C131     C      0.223300000000     0.751800000000     0.469200000000     0          
C132     C      0.200700000000     0.752200000000     0.444800000000     0          
C133     C      0.148900000000     0.802800000000     0.488700000000     0          
C134     C      0.117700000000     0.832900000000     0.490800000000     0          
H135     H      0.190600000000     0.780100000000     0.441000000000     0          
H136     H      0.177800000000     0.734300000000     0.452000000000     0          
H137     H      0.213200000000     0.742600000000     0.419400000000     0          
H138     H      0.142500000000     0.776100000000     0.479400000000     0          
H139     H      0.090100000000     0.825700000000     0.485700000000     0          
C140     C      0.148900000000     0.302800000000     0.988700000000     0          
C141     C      0.117700000000     0.332900000000     0.990800000000     0          
H142     H      0.142500000000     0.276100000000     0.979400000000     0          
H143     H      0.090100000000     0.325700000000     0.985700000000     0          
C144     C      0.648900000000     0.802800000000     0.988700000000     0          
C145     C      0.617700000000     0.832900000000     0.990800000000     0          
H146     H      0.642500000000     0.776100000000     0.979400000000     0          
H147     H      0.590100000000     0.825700000000     0.985700000000     0          
C148     C      0.723300000000     0.251800000000     0.469200000000     0          
C149     C      0.700700000000     0.252200000000     0.444800000000     0          
C150     C      0.648900000000     0.302800000000     0.488700000000     0          
C151     C      0.617700000000     0.332900000000     0.490800000000     0          
H152     H      0.690600000000     0.280100000000     0.441000000000     0          
H153     H      0.677800000000     0.234300000000     0.452000000000     0          
H154     H      0.713200000000     0.242600000000     0.419400000000     0          
H155     H      0.642500000000     0.276100000000     0.479400000000     0          
H156     H      0.590100000000     0.325700000000     0.485700000000     0          
C157     C      0.851100000000     0.802800000000     0.511300000000     0          
C158     C      0.882300000000     0.832900000000     0.509200000000     0          
H159     H      0.857500000000     0.776100000000     0.520600000000     0          
H160     H      0.909900000000     0.825700000000     0.514300000000     0          
C161     C      0.851100000000     0.302800000000     0.011300000000     0          
C162     C      0.882300000000     0.332900000000     0.009200000000     0          
H163     H      0.857500000000     0.276100000000     0.020600000000     0          
H164     H      0.909900000000     0.325700000000     0.014300000000     0          
C165     C      0.351100000000     0.802800000000     0.011300000000     0          
C166     C      0.382300000000     0.832900000000     0.009200000000     0          
H167     H      0.357500000000     0.776100000000     0.020600000000     0          
H168     H      0.409900000000     0.825700000000     0.014300000000     0          
C169     C      0.351100000000     0.302800000000     0.511300000000     0          
C170     C      0.382300000000     0.332900000000     0.509200000000     0          
H171     H      0.357500000000     0.276100000000     0.520600000000     0          
H172     H      0.409900000000     0.325700000000     0.514300000000     0          
C173     C      0.648900000000     0.511300000000     0.302800000000     0          
C174     C      0.617700000000     0.509200000000     0.332900000000     0          
H175     H      0.642500000000     0.520600000000     0.276100000000     0          
H176     H      0.590100000000     0.514300000000     0.325700000000     0          
C177     C      0.851100000000     0.488700000000     0.802800000000     0          
C178     C      0.882300000000     0.490800000000     0.832900000000     0          
H179     H      0.857500000000     0.479400000000     0.776100000000     0          
H180     H      0.909900000000     0.485700000000     0.825700000000     0          
C181     C      0.776700000000     0.969200000000     0.251800000000     0          
C182     C      0.276700000000     0.469200000000     0.251800000000     0          
C183     C      0.276700000000     0.969200000000     0.751800000000     0          
C184     C      0.148900000000     0.988700000000     0.697200000000     0          
C185     C      0.117700000000     0.990800000000     0.667100000000     0          
H186     H      0.142500000000     0.979400000000     0.723900000000     0          
H187     H      0.090100000000     0.985700000000     0.674300000000     0          
C188     C      0.723300000000     0.469200000000     0.748200000000     0          
C189     C      0.648900000000     0.488700000000     0.697200000000     0          
C190     C      0.617700000000     0.490800000000     0.667100000000     0          
H191     H      0.642500000000     0.479400000000     0.723900000000     0          
H192     H      0.590100000000     0.485700000000     0.674300000000     0          
C193     C      0.648900000000     0.988700000000     0.197200000000     0          
C194     C      0.617700000000     0.990800000000     0.167100000000     0          
H195     H      0.642500000000     0.979400000000     0.223900000000     0          
H196     H      0.590100000000     0.985700000000     0.174300000000     0          
C197     C      0.776700000000     0.530800000000     0.248200000000     0          
C198     C      0.851100000000     0.511300000000     0.197200000000     0          
C199     C      0.882300000000     0.509200000000     0.167100000000     0          
H200     H      0.857500000000     0.520600000000     0.223900000000     0          
H201     H      0.909900000000     0.514300000000     0.174300000000     0          
C202     C      0.776700000000     0.030800000000     0.748200000000     0          
C203     C      0.851100000000     0.011300000000     0.697200000000     0          
C204     C      0.882300000000     0.009200000000     0.667100000000     0          
H205     H      0.857500000000     0.020600000000     0.723900000000     0          
H206     H      0.909900000000     0.014300000000     0.674300000000     0          
C207     C      0.276700000000     0.530800000000     0.748200000000     0          
C208     C      0.276700000000     0.030800000000     0.248200000000     0          
C209     C      0.351100000000     0.011300000000     0.197200000000     0          
C210     C      0.382300000000     0.009200000000     0.167100000000     0          
H211     H      0.357500000000     0.020600000000     0.223900000000     0          
H212     H      0.409900000000     0.014300000000     0.174300000000     0          
C213     C      0.530800000000     0.248200000000     0.776700000000     0          
C214     C      0.511300000000     0.197200000000     0.851100000000     0          
C215     C      0.509200000000     0.167100000000     0.882300000000     0          
H216     H      0.520600000000     0.223900000000     0.857500000000     0          
H217     H      0.514300000000     0.174300000000     0.909900000000     0          
C218     C      0.530800000000     0.748200000000     0.276700000000     0          
C219     C      0.469200000000     0.248200000000     0.223300000000     0          
C220     C      0.444800000000     0.247800000000     0.200700000000     0          
H221     H      0.441000000000     0.219900000000     0.190600000000     0          
H222     H      0.452000000000     0.265700000000     0.177800000000     0          
H223     H      0.419400000000     0.257400000000     0.213200000000     0          
C224     C      0.469200000000     0.748200000000     0.723300000000     0          
C225     C      0.444800000000     0.747800000000     0.700700000000     0          
C226     C      0.488700000000     0.697200000000     0.648900000000     0          
C227     C      0.490800000000     0.667100000000     0.617700000000     0          
H228     H      0.441000000000     0.719900000000     0.690600000000     0          
H229     H      0.452000000000     0.765700000000     0.677800000000     0          
H230     H      0.419400000000     0.757400000000     0.713200000000     0          
H231     H      0.479400000000     0.723900000000     0.642500000000     0          
H232     H      0.485700000000     0.674300000000     0.590100000000     0          
C233     C      0.969200000000     0.248200000000     0.723300000000     0          
C234     C      0.969200000000     0.748200000000     0.223300000000     0          
C235     C      0.988700000000     0.697200000000     0.148900000000     0          
C236     C      0.990800000000     0.667100000000     0.117700000000     0          
H237     H      0.979400000000     0.723900000000     0.142500000000     0          
H238     H      0.985700000000     0.674300000000     0.090100000000     0          
C239     C      0.488700000000     0.802800000000     0.851100000000     0          
C240     C      0.490800000000     0.832900000000     0.882300000000     0          
H241     H      0.479400000000     0.776100000000     0.857500000000     0          
H242     H      0.485700000000     0.825700000000     0.909900000000     0          
C243     C      0.988700000000     0.302800000000     0.851100000000     0          
C244     C      0.990800000000     0.332900000000     0.882300000000     0          
H245     H      0.979400000000     0.276100000000     0.857500000000     0          
H246     H      0.985700000000     0.325700000000     0.909900000000     0          
C247     C      0.511300000000     0.302800000000     0.648900000000     0          
C248     C      0.509200000000     0.332900000000     0.617700000000     0          
H249     H      0.520600000000     0.276100000000     0.642500000000     0          
H250     H      0.514300000000     0.325700000000     0.590100000000     0          
C251     C      0.030800000000     0.751800000000     0.723300000000     0          
C252     C      0.011300000000     0.802800000000     0.648900000000     0          
C253     C      0.009200000000     0.832900000000     0.617700000000     0          
H254     H      0.020600000000     0.776100000000     0.642500000000     0          
H255     H      0.014300000000     0.825700000000     0.590100000000     0          
C256     C      0.030800000000     0.251800000000     0.223300000000     0          
C257     C      0.011300000000     0.302800000000     0.148900000000     0          
C258     C      0.009200000000     0.332900000000     0.117700000000     0          
H259     H      0.020600000000     0.276100000000     0.142500000000     0          
H260     H      0.014300000000     0.325700000000     0.090100000000     0          
C261     C      0.248200000000     0.223300000000     0.469200000000     0          
C262     C      0.197200000000     0.148900000000     0.488700000000     0          
C263     C      0.167100000000     0.117700000000     0.490800000000     0          
H264     H      0.223900000000     0.142500000000     0.479400000000     0          
H265     H      0.174300000000     0.090100000000     0.485700000000     0          
C266     C      0.248200000000     0.723300000000     0.969200000000     0          
C267     C      0.748200000000     0.223300000000     0.969200000000     0          
C268     C      0.748200000000     0.723300000000     0.469200000000     0          
C269     C      0.697200000000     0.648900000000     0.488700000000     0          
C270     C      0.667100000000     0.617700000000     0.490800000000     0          
H271     H      0.723900000000     0.642500000000     0.479400000000     0          
H272     H      0.674300000000     0.590100000000     0.485700000000     0          
C273     C      0.248200000000     0.776700000000     0.530800000000     0          
C274     C      0.197200000000     0.851100000000     0.511300000000     0          
C275     C      0.167100000000     0.882300000000     0.509200000000     0          
H276     H      0.223900000000     0.857500000000     0.520600000000     0          
H277     H      0.174300000000     0.909900000000     0.514300000000     0          
C278     C      0.197200000000     0.351100000000     0.011300000000     0          
C279     C      0.167100000000     0.382300000000     0.009200000000     0          
H280     H      0.223900000000     0.357500000000     0.020600000000     0          
H281     H      0.174300000000     0.409900000000     0.014300000000     0          
C282     C      0.697200000000     0.851100000000     0.011300000000     0          
C283     C      0.667100000000     0.882300000000     0.009200000000     0          
H284     H      0.723900000000     0.857500000000     0.020600000000     0          
H285     H      0.674300000000     0.909900000000     0.014300000000     0          
C286     C      0.748200000000     0.276700000000     0.530800000000     0          
C287     C      0.697200000000     0.351100000000     0.511300000000     0          
C288     C      0.667100000000     0.382300000000     0.509200000000     0          
H289     H      0.723900000000     0.357500000000     0.520600000000     0          
H290     H      0.674300000000     0.409900000000     0.514300000000     0          
C291     C      0.802800000000     0.148900000000     0.511300000000     0          
C292     C      0.832900000000     0.117700000000     0.509200000000     0          
H293     H      0.776100000000     0.142500000000     0.520600000000     0          
H294     H      0.825700000000     0.090100000000     0.514300000000     0          
C295     C      0.751800000000     0.723300000000     0.030800000000     0          
C296     C      0.251800000000     0.223300000000     0.030800000000     0          
C297     C      0.302800000000     0.648900000000     0.511300000000     0          
C298     C      0.332900000000     0.617700000000     0.509200000000     0          
H299     H      0.276100000000     0.642500000000     0.520600000000     0          
H300     H      0.325700000000     0.590100000000     0.514300000000     0          
C301     C      0.802800000000     0.851100000000     0.488700000000     0          
C302     C      0.832900000000     0.882300000000     0.490800000000     0          
H303     H      0.776100000000     0.857500000000     0.479400000000     0          
H304     H      0.825700000000     0.909900000000     0.485700000000     0          
C305     C      0.802800000000     0.351100000000     0.988700000000     0          
C306     C      0.832900000000     0.382300000000     0.990800000000     0          
H307     H      0.776100000000     0.357500000000     0.979400000000     0          
H308     H      0.825700000000     0.409900000000     0.985700000000     0          
C309     C      0.302800000000     0.851100000000     0.988700000000     0          
C310     C      0.332900000000     0.882300000000     0.990800000000     0          
H311     H      0.276100000000     0.857500000000     0.979400000000     0          
H312     H      0.325700000000     0.909900000000     0.985700000000     0          
C313     C      0.302800000000     0.351100000000     0.488700000000     0          
C314     C      0.332900000000     0.382300000000     0.490800000000     0          
H315     H      0.276100000000     0.357500000000     0.479400000000     0          
H316     H      0.325700000000     0.409900000000     0.485700000000     0          
C317     C      0.469200000000     0.776700000000     0.751800000000     0          
C318     C      0.469200000000     0.276700000000     0.251800000000     0          
C319     C      0.488700000000     0.351100000000     0.302800000000     0          
C320     C      0.490800000000     0.382300000000     0.332900000000     0          
H321     H      0.479400000000     0.357500000000     0.276100000000     0          
H322     H      0.485700000000     0.409900000000     0.325700000000     0          
C323     C      0.969200000000     0.776700000000     0.251800000000     0          
C324     C      0.944800000000     0.799300000000     0.252200000000     0          
C325     C      0.988700000000     0.851100000000     0.302800000000     0          
C326     C      0.990800000000     0.882300000000     0.332900000000     0          
H327     H      0.941000000000     0.809400000000     0.280100000000     0          
H328     H      0.952000000000     0.822200000000     0.234300000000     0          
H329     H      0.919400000000     0.786800000000     0.242600000000     0          
H330     H      0.979400000000     0.857500000000     0.276100000000     0          
H331     H      0.985700000000     0.909900000000     0.325700000000     0          
C332     C      0.969200000000     0.276700000000     0.751800000000     0          
C333     C      0.944800000000     0.299300000000     0.752200000000     0          
H334     H      0.941000000000     0.309400000000     0.780100000000     0          
H335     H      0.952000000000     0.322200000000     0.734300000000     0          
H336     H      0.919400000000     0.286800000000     0.742600000000     0          
C337     C      0.511300000000     0.648900000000     0.302800000000     0          
C338     C      0.509200000000     0.617700000000     0.332900000000     0          
H339     H      0.520600000000     0.642500000000     0.276100000000     0          
H340     H      0.514300000000     0.590100000000     0.325700000000     0          
C341     C      0.030800000000     0.223300000000     0.251800000000     0          
C342     C      0.011300000000     0.148900000000     0.302800000000     0          
C343     C      0.009200000000     0.117700000000     0.332900000000     0          
H344     H      0.020600000000     0.142500000000     0.276100000000     0          
H345     H      0.014300000000     0.090100000000     0.325700000000     0          
C346     C      0.030800000000     0.723300000000     0.751800000000     0          
C347     C      0.011300000000     0.648900000000     0.802800000000     0          
C348     C      0.009200000000     0.617700000000     0.832900000000     0          
H349     H      0.020600000000     0.642500000000     0.776100000000     0          
H350     H      0.014300000000     0.590100000000     0.825700000000     0          
C351     C      0.530800000000     0.776700000000     0.248200000000     0          
C352     C      0.511300000000     0.851100000000     0.197200000000     0          
C353     C      0.509200000000     0.882300000000     0.167100000000     0          
H354     H      0.520600000000     0.857500000000     0.223900000000     0          
H355     H      0.514300000000     0.909900000000     0.174300000000     0          
C356     C      0.530800000000     0.276700000000     0.748200000000     0          
C357     C      0.488700000000     0.148900000000     0.197200000000     0          
C358     C      0.490800000000     0.117700000000     0.167100000000     0          
H359     H      0.479400000000     0.142500000000     0.223900000000     0          
H360     H      0.485700000000     0.090100000000     0.174300000000     0          
C361     C      0.988700000000     0.148900000000     0.697200000000     0          
C362     C      0.990800000000     0.117700000000     0.667100000000     0          
H363     H      0.979400000000     0.142500000000     0.723900000000     0          
H364     H      0.985700000000     0.090100000000     0.674300000000     0          
C365     C      0.751800000000     0.469200000000     0.776700000000     0          
C366     C      0.802800000000     0.988700000000     0.351100000000     0          
C367     C      0.832900000000     0.990800000000     0.382300000000     0          
H368     H      0.776100000000     0.979400000000     0.357500000000     0          
H369     H      0.825700000000     0.985700000000     0.409900000000     0          
C370     C      0.302800000000     0.488700000000     0.351100000000     0          
C371     C      0.332900000000     0.490800000000     0.382300000000     0          
H372     H      0.276100000000     0.479400000000     0.357500000000     0          
H373     H      0.325700000000     0.485700000000     0.409900000000     0          
C374     C      0.302800000000     0.988700000000     0.851100000000     0          
C375     C      0.332900000000     0.990800000000     0.882300000000     0          
H376     H      0.276100000000     0.979400000000     0.857500000000     0          
H377     H      0.325700000000     0.985700000000     0.909900000000     0          
C378     C      0.302800000000     0.511300000000     0.648900000000     0          
C379     C      0.332900000000     0.509200000000     0.617700000000     0          
H380     H      0.276100000000     0.520600000000     0.642500000000     0          
H381     H      0.325700000000     0.514300000000     0.590100000000     0          
C382     C      0.248200000000     0.530800000000     0.776700000000     0          
C383     C      0.197200000000     0.511300000000     0.851100000000     0          
C384     C      0.167100000000     0.509200000000     0.882300000000     0          
H385     H      0.223900000000     0.520600000000     0.857500000000     0          
H386     H      0.174300000000     0.514300000000     0.909900000000     0          
C387     C      0.248200000000     0.030800000000     0.276700000000     0          
C388     C      0.197200000000     0.011300000000     0.351100000000     0          
C389     C      0.167100000000     0.009200000000     0.382300000000     0          
H390     H      0.223900000000     0.020600000000     0.357500000000     0          
H391     H      0.174300000000     0.014300000000     0.409900000000     0          
C392     C      0.748200000000     0.530800000000     0.276700000000     0          
C393     C      0.748200000000     0.030800000000     0.776700000000     0          
C394     C      0.697200000000     0.011300000000     0.851100000000     0          
C395     C      0.667100000000     0.009200000000     0.882300000000     0          
H396     H      0.723900000000     0.020600000000     0.857500000000     0          
H397     H      0.674300000000     0.014300000000     0.909900000000     0          
C398     C      0.248200000000     0.469200000000     0.223300000000     0          
C399     C      0.247800000000     0.444800000000     0.200700000000     0          
C400     C      0.197200000000     0.488700000000     0.148900000000     0          
C401     C      0.167100000000     0.490800000000     0.117700000000     0          
H402     H      0.219900000000     0.441000000000     0.190600000000     0          
H403     H      0.265700000000     0.452000000000     0.177800000000     0          
H404     H      0.257400000000     0.419400000000     0.213200000000     0          
H405     H      0.223900000000     0.479400000000     0.142500000000     0          
H406     H      0.174300000000     0.485700000000     0.090100000000     0          
C407     C      0.248200000000     0.969200000000     0.723300000000     0          
C408     C      0.247800000000     0.944800000000     0.700700000000     0          
H409     H      0.219900000000     0.941000000000     0.690600000000     0          
H410     H      0.265700000000     0.952000000000     0.677800000000     0          
H411     H      0.257400000000     0.919400000000     0.713200000000     0          
C412     C      0.748200000000     0.969200000000     0.223300000000     0          
C413     C      0.747800000000     0.944800000000     0.200700000000     0          
H414     H      0.719900000000     0.941000000000     0.190600000000     0          
H415     H      0.765700000000     0.952000000000     0.177800000000     0          
H416     H      0.757400000000     0.919400000000     0.213200000000     0          
C417     C      0.776700000000     0.751800000000     0.469200000000     0          
C418     C      0.776700000000     0.251800000000     0.969200000000     0          
C419     C      0.799300000000     0.252200000000     0.944800000000     0          
H420     H      0.809400000000     0.280100000000     0.941000000000     0          
H421     H      0.822200000000     0.234300000000     0.952000000000     0          
H422     H      0.786800000000     0.242600000000     0.919400000000     0          
C423     C      0.276700000000     0.751800000000     0.969200000000     0          
C424     C      0.299300000000     0.752200000000     0.944800000000     0          
H425     H      0.309400000000     0.780100000000     0.941000000000     0          
H426     H      0.322200000000     0.734300000000     0.952000000000     0          
H427     H      0.286800000000     0.742600000000     0.919400000000     0          
C428     C      0.276700000000     0.251800000000     0.469200000000     0          
C429     C      0.223300000000     0.251800000000     0.030800000000     0          
C430     C      0.723300000000     0.751800000000     0.030800000000     0          
C431     C      0.776700000000     0.248200000000     0.530800000000     0          
C432     C      0.851100000000     0.697200000000     0.011300000000     0          
C433     C      0.882300000000     0.667100000000     0.009200000000     0          
H434     H      0.857500000000     0.723900000000     0.020600000000     0          
H435     H      0.909900000000     0.674300000000     0.014300000000     0          
C436     C      0.351100000000     0.197200000000     0.011300000000     0          
C437     C      0.382300000000     0.167100000000     0.009200000000     0          
H438     H      0.357500000000     0.223900000000     0.020600000000     0          
H439     H      0.409900000000     0.174300000000     0.014300000000     0          
C440     C      0.276700000000     0.748200000000     0.530800000000     0          
C441     C      0.148900000000     0.697200000000     0.988700000000     0          
C442     C      0.117700000000     0.667100000000     0.990800000000     0          
H443     H      0.142500000000     0.723900000000     0.979400000000     0          
H444     H      0.090100000000     0.674300000000     0.985700000000     0          
C445     C      0.648900000000     0.197200000000     0.988700000000     0          
C446     C      0.617700000000     0.167100000000     0.990800000000     0          
H447     H      0.642500000000     0.223900000000     0.979400000000     0          
H448     H      0.590100000000     0.174300000000     0.985700000000     0          
C449     C      0.351100000000     0.488700000000     0.697200000000     0          
C450     C      0.382300000000     0.490800000000     0.667100000000     0          
H451     H      0.357500000000     0.479400000000     0.723900000000     0          
H452     H      0.409900000000     0.485700000000     0.674300000000     0          
C453     C      0.223300000000     0.530800000000     0.248200000000     0          
C454     C      0.148900000000     0.511300000000     0.197200000000     0          
C455     C      0.117700000000     0.509200000000     0.167100000000     0          
H456     H      0.142500000000     0.520600000000     0.223900000000     0          
H457     H      0.090100000000     0.514300000000     0.174300000000     0          
C458     C      0.223300000000     0.030800000000     0.748200000000     0          
C459     C      0.723300000000     0.030800000000     0.248200000000     0          
C460     C      0.776700000000     0.530800000000     0.751800000000     0          
C461     C      0.851100000000     0.011300000000     0.302800000000     0          
C462     C      0.882300000000     0.009200000000     0.332900000000     0          
H463     H      0.857500000000     0.020600000000     0.276100000000     0          
H464     H      0.909900000000     0.014300000000     0.325700000000     0          
C465     C      0.351100000000     0.511300000000     0.302800000000     0          
C466     C      0.382300000000     0.509200000000     0.332900000000     0          
H467     H      0.357500000000     0.520600000000     0.276100000000     0          
H468     H      0.409900000000     0.514300000000     0.325700000000     0          
C469     C      0.351100000000     0.011300000000     0.802800000000     0          
C470     C      0.382300000000     0.009200000000     0.832900000000     0          
H471     H      0.357500000000     0.020600000000     0.776100000000     0          
H472     H      0.409900000000     0.014300000000     0.825700000000     0          
C473     C      0.223300000000     0.469200000000     0.751800000000     0          
C474     C      0.200700000000     0.444800000000     0.752200000000     0          
C475     C      0.148900000000     0.488700000000     0.802800000000     0          
C476     C      0.117700000000     0.490800000000     0.832900000000     0          
H477     H      0.190600000000     0.441000000000     0.780100000000     0          
H478     H      0.177800000000     0.452000000000     0.734300000000     0          
H479     H      0.213200000000     0.419400000000     0.742600000000     0          
H480     H      0.142500000000     0.479400000000     0.776100000000     0          
H481     H      0.090100000000     0.485700000000     0.825700000000     0          
C482     C      0.223300000000     0.969200000000     0.251800000000     0          
C483     C      0.200700000000     0.944800000000     0.252200000000     0          
C484     C      0.148900000000     0.988700000000     0.302800000000     0          
C485     C      0.117700000000     0.990800000000     0.332900000000     0          
H486     H      0.190600000000     0.941000000000     0.280100000000     0          
H487     H      0.177800000000     0.952000000000     0.234300000000     0          
H488     H      0.213200000000     0.919400000000     0.242600000000     0          
H489     H      0.142500000000     0.979400000000     0.276100000000     0          
H490     H      0.090100000000     0.985700000000     0.325700000000     0          
C491     C      0.723300000000     0.469200000000     0.251800000000     0          
C492     C      0.700700000000     0.444800000000     0.252200000000     0          
H493     H      0.690600000000     0.441000000000     0.280100000000     0          
H494     H      0.677800000000     0.452000000000     0.234300000000     0          
H495     H      0.713200000000     0.419400000000     0.242600000000     0          
C496     C      0.723300000000     0.969200000000     0.751800000000     0          
C497     C      0.700700000000     0.944800000000     0.752200000000     0          
C498     C      0.648900000000     0.988700000000     0.802800000000     0          
C499     C      0.617700000000     0.990800000000     0.832900000000     0          
H500     H      0.690600000000     0.941000000000     0.780100000000     0          
H501     H      0.677800000000     0.952000000000     0.734300000000     0          
H502     H      0.713200000000     0.919400000000     0.742600000000     0          
H503     H      0.642500000000     0.979400000000     0.776100000000     0          
H504     H      0.590100000000     0.985700000000     0.825700000000     0          
C505     C      0.469200000000     0.751800000000     0.223300000000     0          
C506     C      0.488700000000     0.802800000000     0.148900000000     0          
C507     C      0.490800000000     0.832900000000     0.117700000000     0          
H508     H      0.479400000000     0.776100000000     0.142500000000     0          
H509     H      0.485700000000     0.825700000000     0.090100000000     0          
C510     C      0.469200000000     0.251800000000     0.723300000000     0          
C511     C      0.530800000000     0.751800000000     0.776700000000     0          
C512     C      0.530800000000     0.251800000000     0.276700000000     0          
C513     C      0.511300000000     0.302800000000     0.351100000000     0          
C514     C      0.509200000000     0.332900000000     0.382300000000     0          
H515     H      0.520600000000     0.276100000000     0.357500000000     0          
H516     H      0.514300000000     0.325700000000     0.409900000000     0          
C517     C      0.030800000000     0.751800000000     0.276700000000     0          
C518     C      0.011300000000     0.802800000000     0.351100000000     0          
C519     C      0.009200000000     0.832900000000     0.382300000000     0          
H520     H      0.020600000000     0.776100000000     0.357500000000     0          
H521     H      0.014300000000     0.825700000000     0.409900000000     0          
C522     C      0.030800000000     0.251800000000     0.776700000000     0          
C523     C      0.511300000000     0.197200000000     0.148900000000     0          
C524     C      0.509200000000     0.167100000000     0.117700000000     0          
H525     H      0.520600000000     0.223900000000     0.142500000000     0          
H526     H      0.514300000000     0.174300000000     0.090100000000     0          
C527     C      0.011300000000     0.197200000000     0.648900000000     0          
C528     C      0.009200000000     0.167100000000     0.617700000000     0          
H529     H      0.020600000000     0.223900000000     0.642500000000     0          
H530     H      0.014300000000     0.174300000000     0.590100000000     0          
C531     C      0.488700000000     0.697200000000     0.351100000000     0          
C532     C      0.490800000000     0.667100000000     0.382300000000     0          
H533     H      0.479400000000     0.723900000000     0.357500000000     0          
H534     H      0.485700000000     0.674300000000     0.409900000000     0          
C535     C      0.969200000000     0.248200000000     0.276700000000     0          
C536     C      0.988700000000     0.197200000000     0.351100000000     0          
C537     C      0.990800000000     0.167100000000     0.382300000000     0          
H538     H      0.979400000000     0.223900000000     0.357500000000     0          
H539     H      0.985700000000     0.174300000000     0.409900000000     0          
C540     C      0.969200000000     0.748200000000     0.776700000000     0          
C541     C      0.988700000000     0.697200000000     0.851100000000     0          
C542     C      0.990800000000     0.667100000000     0.882300000000     0          
H543     H      0.979400000000     0.723900000000     0.857500000000     0          
H544     H      0.985700000000     0.674300000000     0.909900000000     0          
C545     C      0.751800000000     0.776700000000     0.530800000000     0          
C546     C      0.751800000000     0.276700000000     0.030800000000     0          
C547     C      0.251800000000     0.776700000000     0.030800000000     0          
C548     C      0.251800000000     0.276700000000     0.530800000000     0          
C549     C      0.751800000000     0.223300000000     0.469200000000     0          
C550     C      0.802800000000     0.648900000000     0.988700000000     0          
C551     C      0.832900000000     0.617700000000     0.990800000000     0          
H552     H      0.776100000000     0.642500000000     0.979400000000     0          
H553     H      0.825700000000     0.590100000000     0.985700000000     0          
C554     C      0.302800000000     0.148900000000     0.988700000000     0          
C555     C      0.332900000000     0.117700000000     0.990800000000     0          
H556     H      0.276100000000     0.142500000000     0.979400000000     0          
H557     H      0.325700000000     0.090100000000     0.985700000000     0          
C558     C      0.251800000000     0.723300000000     0.469200000000     0          
C559     C      0.248200000000     0.276700000000     0.969200000000     0          
C560     C      0.247800000000     0.299300000000     0.944800000000     0          
H561     H      0.219900000000     0.309400000000     0.941000000000     0          
H562     H      0.265700000000     0.322200000000     0.952000000000     0          
H563     H      0.257400000000     0.286800000000     0.919400000000     0          
C564     C      0.748200000000     0.776700000000     0.969200000000     0          
C565     C      0.747800000000     0.799300000000     0.944800000000     0          
H566     H      0.719900000000     0.809400000000     0.941000000000     0          
H567     H      0.765700000000     0.822200000000     0.952000000000     0          
H568     H      0.757400000000     0.786800000000     0.919400000000     0          
C569     C      0.197200000000     0.648900000000     0.011300000000     0          
C570     C      0.167100000000     0.617700000000     0.009200000000     0          
H571     H      0.223900000000     0.642500000000     0.020600000000     0          
H572     H      0.174300000000     0.590100000000     0.014300000000     0          
C573     C      0.697200000000     0.148900000000     0.011300000000     0          
C574     C      0.667100000000     0.117700000000     0.009200000000     0          
H575     H      0.723900000000     0.142500000000     0.020600000000     0          
H576     H      0.674300000000     0.090100000000     0.014300000000     0          
O577     O      0.462930000000     0.037070000000     0.037070000000     0          
O578     O      0.462930000000     0.537070000000     0.537070000000     0          
O579     O      0.537070000000     0.962930000000     0.037070000000     0          
O580     O      0.537070000000     0.462930000000     0.537070000000     0          
O581     O      0.037070000000     0.462930000000     0.037070000000     0          
O582     O      0.537070000000     0.037070000000     0.962930000000     0          
O583     O      0.537070000000     0.537070000000     0.462930000000     0          
O584     O      0.037070000000     0.037070000000     0.462930000000     0          
O585     O      0.462930000000     0.962930000000     0.962930000000     0          
O586     O      0.462930000000     0.462930000000     0.462930000000     0          
O587     O      0.037070000000     0.537070000000     0.962930000000     0          
O588     O      0.962930000000     0.537070000000     0.037070000000     0          
O589     O      0.962930000000     0.462930000000     0.962930000000     0          
O590     O      0.962930000000     0.037070000000     0.537070000000     0          
O591     O      0.037070000000     0.962930000000     0.537070000000     0          
O592     O      0.962930000000     0.962930000000     0.462930000000     0          
O593     O      0.037070000000     0.462930000000     0.962930000000     0          
O594     O      0.962930000000     0.537070000000     0.962930000000     0          
O595     O      0.962930000000     0.037070000000     0.462930000000     0          
O596     O      0.462930000000     0.037070000000     0.962930000000     0          
O597     O      0.037070000000     0.537070000000     0.037070000000     0          
O598     O      0.962930000000     0.462930000000     0.037070000000     0          
O599     O      0.462930000000     0.462930000000     0.537070000000     0          
O600     O      0.462930000000     0.537070000000     0.462930000000     0          
O601     O      0.537070000000     0.037070000000     0.037070000000     0          
O602     O      0.537070000000     0.537070000000     0.537070000000     0          
O603     O      0.537070000000     0.962930000000     0.962930000000     0          
O604     O      0.537070000000     0.462930000000     0.462930000000     0          
O605     O      0.037070000000     0.962930000000     0.462930000000     0          
O606     O      0.462930000000     0.962930000000     0.037070000000     0          
O607     O      0.037070000000     0.037070000000     0.537070000000     0          
O608     O      0.962930000000     0.962930000000     0.537070000000     0          
O609     O      0.500000000000     0.058940000000     0.108330000000     0          
O610     O      0.500000000000     0.558940000000     0.608330000000     0          
O611     O      0.000000000000     0.058940000000     0.608330000000     0          
O612     O      0.000000000000     0.558940000000     0.108330000000     0          
O613     O      0.500000000000     0.941060000000     0.108330000000     0          
O614     O      0.500000000000     0.441060000000     0.608330000000     0          
O615     O      0.000000000000     0.941060000000     0.608330000000     0          
O616     O      0.000000000000     0.441060000000     0.108330000000     0          
O617     O      0.500000000000     0.058940000000     0.891670000000     0          
O618     O      0.500000000000     0.558940000000     0.391670000000     0          
O619     O      0.000000000000     0.058940000000     0.391670000000     0          
O620     O      0.000000000000     0.558940000000     0.891670000000     0          
O621     O      0.500000000000     0.941060000000     0.891670000000     0          
O622     O      0.500000000000     0.441060000000     0.391670000000     0          
O623     O      0.000000000000     0.941060000000     0.391670000000     0          
O624     O      0.000000000000     0.441060000000     0.891670000000     0          
O625     O      0.108330000000     0.500000000000     0.058940000000     0          
O626     O      0.108330000000     0.000000000000     0.558940000000     0          
O627     O      0.608330000000     0.500000000000     0.558940000000     0          
O628     O      0.608330000000     0.000000000000     0.058940000000     0          
O629     O      0.108330000000     0.500000000000     0.941060000000     0          
O630     O      0.108330000000     0.000000000000     0.441060000000     0          
O631     O      0.608330000000     0.500000000000     0.441060000000     0          
O632     O      0.608330000000     0.000000000000     0.941060000000     0          
O633     O      0.891670000000     0.500000000000     0.058940000000     0          
O634     O      0.891670000000     0.000000000000     0.558940000000     0          
O635     O      0.391670000000     0.500000000000     0.558940000000     0          
O636     O      0.391670000000     0.000000000000     0.058940000000     0          
O637     O      0.891670000000     0.500000000000     0.941060000000     0          
O638     O      0.891670000000     0.000000000000     0.441060000000     0          
O639     O      0.391670000000     0.500000000000     0.441060000000     0          
O640     O      0.391670000000     0.000000000000     0.941060000000     0          
O641     O      0.058940000000     0.108330000000     0.500000000000     0          
O642     O      0.058940000000     0.608330000000     0.000000000000     0          
O643     O      0.558940000000     0.108330000000     0.000000000000     0          
O644     O      0.558940000000     0.608330000000     0.500000000000     0          
O645     O      0.941060000000     0.108330000000     0.500000000000     0          
O646     O      0.941060000000     0.608330000000     0.000000000000     0          
O647     O      0.441060000000     0.108330000000     0.000000000000     0          
O648     O      0.441060000000     0.608330000000     0.500000000000     0          
O649     O      0.058940000000     0.891670000000     0.500000000000     0          
O650     O      0.058940000000     0.391670000000     0.000000000000     0          
O651     O      0.558940000000     0.891670000000     0.000000000000     0          
O652     O      0.558940000000     0.391670000000     0.500000000000     0          
O653     O      0.941060000000     0.891670000000     0.500000000000     0          
O654     O      0.941060000000     0.391670000000     0.000000000000     0          
O655     O      0.441060000000     0.891670000000     0.000000000000     0          
O656     O      0.441060000000     0.391670000000     0.500000000000     0          
O657     O      0.058940000000     0.500000000000     0.891670000000     0          
O658     O      0.058940000000     0.000000000000     0.391670000000     0          
O659     O      0.558940000000     0.500000000000     0.391670000000     0          
O660     O      0.558940000000     0.000000000000     0.891670000000     0          
O661     O      0.941060000000     0.500000000000     0.891670000000     0          
O662     O      0.941060000000     0.000000000000     0.391670000000     0          
O663     O      0.441060000000     0.500000000000     0.391670000000     0          
O664     O      0.441060000000     0.000000000000     0.891670000000     0          
O665     O      0.058940000000     0.500000000000     0.108330000000     0          
O666     O      0.058940000000     0.000000000000     0.608330000000     0          
O667     O      0.558940000000     0.500000000000     0.608330000000     0          
O668     O      0.558940000000     0.000000000000     0.108330000000     0          
O669     O      0.941060000000     0.500000000000     0.108330000000     0          
O670     O      0.941060000000     0.000000000000     0.608330000000     0          
O671     O      0.441060000000     0.500000000000     0.608330000000     0          
O672     O      0.441060000000     0.000000000000     0.108330000000     0          
O673     O      0.500000000000     0.108330000000     0.941060000000     0          
O674     O      0.500000000000     0.608330000000     0.441060000000     0          
O675     O      0.000000000000     0.108330000000     0.441060000000     0          
O676     O      0.000000000000     0.608330000000     0.941060000000     0          
O677     O      0.500000000000     0.108330000000     0.058940000000     0          
O678     O      0.500000000000     0.608330000000     0.558940000000     0          
O679     O      0.000000000000     0.108330000000     0.558940000000     0          
O680     O      0.000000000000     0.608330000000     0.058940000000     0          
O681     O      0.500000000000     0.891670000000     0.941060000000     0          
O682     O      0.500000000000     0.391670000000     0.441060000000     0          
O683     O      0.000000000000     0.891670000000     0.441060000000     0          
O684     O      0.000000000000     0.391670000000     0.941060000000     0          
O685     O      0.500000000000     0.891670000000     0.058940000000     0          
O686     O      0.500000000000     0.391670000000     0.558940000000     0          
O687     O      0.000000000000     0.891670000000     0.558940000000     0          
O688     O      0.000000000000     0.391670000000     0.058940000000     0          
O689     O      0.108330000000     0.058940000000     0.500000000000     0          
O690     O      0.108330000000     0.558940000000     0.000000000000     0          
O691     O      0.608330000000     0.058940000000     0.000000000000     0          
O692     O      0.608330000000     0.558940000000     0.500000000000     0          
O693     O      0.108330000000     0.941060000000     0.500000000000     0          
O694     O      0.108330000000     0.441060000000     0.000000000000     0          
O695     O      0.608330000000     0.941060000000     0.000000000000     0          
O696     O      0.608330000000     0.441060000000     0.500000000000     0          
O697     O      0.891670000000     0.058940000000     0.500000000000     0          
O698     O      0.891670000000     0.558940000000     0.000000000000     0          
O699     O      0.391670000000     0.058940000000     0.000000000000     0          
O700     O      0.391670000000     0.558940000000     0.500000000000     0          
O701     O      0.891670000000     0.941060000000     0.500000000000     0          
O702     O      0.891670000000     0.441060000000     0.000000000000     0          
O703     O      0.391670000000     0.941060000000     0.000000000000     0          
O704     O      0.391670000000     0.441060000000     0.500000000000     0          
C705     C      0.500000000000     0.095730000000     0.095730000000     0          
C706     C      0.500000000000     0.127790000000     0.127790000000     0          
C707     C      0.500000000000     0.187910000000     0.187910000000     0          
C708     C      0.500000000000     0.219300000000     0.219300000000     0          
C709     C      0.500000000000     0.595730000000     0.595730000000     0          
C710     C      0.500000000000     0.627790000000     0.627790000000     0          
C711     C      0.500000000000     0.687910000000     0.687910000000     0          
C712     C      0.500000000000     0.719300000000     0.719300000000     0          
C713     C      0.000000000000     0.095730000000     0.595730000000     0          
C714     C      0.000000000000     0.127790000000     0.627790000000     0          
C715     C      0.000000000000     0.187910000000     0.687910000000     0          
C716     C      0.000000000000     0.219300000000     0.719300000000     0          
C717     C      0.000000000000     0.595730000000     0.095730000000     0          
C718     C      0.000000000000     0.627790000000     0.127790000000     0          
C719     C      0.000000000000     0.687910000000     0.187910000000     0          
C720     C      0.000000000000     0.719300000000     0.219300000000     0          
C721     C      0.500000000000     0.904270000000     0.095730000000     0          
C722     C      0.500000000000     0.872210000000     0.127790000000     0          
C723     C      0.500000000000     0.812090000000     0.187910000000     0          
C724     C      0.500000000000     0.780700000000     0.219300000000     0          
C725     C      0.500000000000     0.404270000000     0.595730000000     0          
C726     C      0.500000000000     0.372210000000     0.627790000000     0          
C727     C      0.500000000000     0.312090000000     0.687910000000     0          
C728     C      0.500000000000     0.280700000000     0.719300000000     0          
C729     C      0.000000000000     0.904270000000     0.595730000000     0          
C730     C      0.000000000000     0.872210000000     0.627790000000     0          
C731     C      0.000000000000     0.812090000000     0.687910000000     0          
C732     C      0.000000000000     0.780700000000     0.719300000000     0          
C733     C      0.000000000000     0.404270000000     0.095730000000     0          
C734     C      0.000000000000     0.372210000000     0.127790000000     0          
C735     C      0.000000000000     0.312090000000     0.187910000000     0          
C736     C      0.000000000000     0.280700000000     0.219300000000     0          
C737     C      0.500000000000     0.095730000000     0.904270000000     0          
C738     C      0.500000000000     0.127790000000     0.872210000000     0          
C739     C      0.500000000000     0.187910000000     0.812090000000     0          
C740     C      0.500000000000     0.219300000000     0.780700000000     0          
C741     C      0.500000000000     0.595730000000     0.404270000000     0          
C742     C      0.500000000000     0.627790000000     0.372210000000     0          
C743     C      0.500000000000     0.687910000000     0.312090000000     0          
C744     C      0.500000000000     0.719300000000     0.280700000000     0          
C745     C      0.000000000000     0.095730000000     0.404270000000     0          
C746     C      0.000000000000     0.127790000000     0.372210000000     0          
C747     C      0.000000000000     0.187910000000     0.312090000000     0          
C748     C      0.000000000000     0.219300000000     0.280700000000     0          
C749     C      0.000000000000     0.595730000000     0.904270000000     0          
C750     C      0.000000000000     0.627790000000     0.872210000000     0          
C751     C      0.000000000000     0.687910000000     0.812090000000     0          
C752     C      0.000000000000     0.719300000000     0.780700000000     0          
C753     C      0.500000000000     0.904270000000     0.904270000000     0          
C754     C      0.500000000000     0.872210000000     0.872210000000     0          
C755     C      0.500000000000     0.812090000000     0.812090000000     0          
C756     C      0.500000000000     0.780700000000     0.780700000000     0          
C757     C      0.500000000000     0.404270000000     0.404270000000     0          
C758     C      0.500000000000     0.372210000000     0.372210000000     0          
C759     C      0.500000000000     0.312090000000     0.312090000000     0          
C760     C      0.500000000000     0.280700000000     0.280700000000     0          
C761     C      0.000000000000     0.904270000000     0.404270000000     0          
C762     C      0.000000000000     0.872210000000     0.372210000000     0          
C763     C      0.000000000000     0.812090000000     0.312090000000     0          
C764     C      0.000000000000     0.780700000000     0.280700000000     0          
C765     C      0.000000000000     0.404270000000     0.904270000000     0          
C766     C      0.000000000000     0.372210000000     0.872210000000     0          
C767     C      0.000000000000     0.312090000000     0.812090000000     0          
C768     C      0.000000000000     0.280700000000     0.780700000000     0          
C769     C      0.095730000000     0.500000000000     0.095730000000     0          
C770     C      0.127790000000     0.500000000000     0.127790000000     0          
C771     C      0.187910000000     0.500000000000     0.187910000000     0          
C772     C      0.219300000000     0.500000000000     0.219300000000     0          
C773     C      0.095730000000     0.000000000000     0.595730000000     0          
C774     C      0.127790000000     0.000000000000     0.627790000000     0          
C775     C      0.187910000000     0.000000000000     0.687910000000     0          
C776     C      0.219300000000     0.000000000000     0.719300000000     0          
C777     C      0.595730000000     0.500000000000     0.595730000000     0          
C778     C      0.627790000000     0.500000000000     0.627790000000     0          
C779     C      0.687910000000     0.500000000000     0.687910000000     0          
C780     C      0.719300000000     0.500000000000     0.719300000000     0          
C781     C      0.595730000000     0.000000000000     0.095730000000     0          
C782     C      0.627790000000     0.000000000000     0.127790000000     0          
C783     C      0.687910000000     0.000000000000     0.187910000000     0          
C784     C      0.719300000000     0.000000000000     0.219300000000     0          
C785     C      0.095730000000     0.500000000000     0.904270000000     0          
C786     C      0.127790000000     0.500000000000     0.872210000000     0          
C787     C      0.187910000000     0.500000000000     0.812090000000     0          
C788     C      0.219300000000     0.500000000000     0.780700000000     0          
C789     C      0.095730000000     0.000000000000     0.404270000000     0          
C790     C      0.127790000000     0.000000000000     0.372210000000     0          
C791     C      0.187910000000     0.000000000000     0.312090000000     0          
C792     C      0.219300000000     0.000000000000     0.280700000000     0          
C793     C      0.595730000000     0.500000000000     0.404270000000     0          
C794     C      0.627790000000     0.500000000000     0.372210000000     0          
C795     C      0.687910000000     0.500000000000     0.312090000000     0          
C796     C      0.719300000000     0.500000000000     0.280700000000     0          
C797     C      0.595730000000     0.000000000000     0.904270000000     0          
C798     C      0.627790000000     0.000000000000     0.872210000000     0          
C799     C      0.687910000000     0.000000000000     0.812090000000     0          
C800     C      0.719300000000     0.000000000000     0.780700000000     0          
C801     C      0.904270000000     0.500000000000     0.095730000000     0          
C802     C      0.872210000000     0.500000000000     0.127790000000     0          
C803     C      0.812090000000     0.500000000000     0.187910000000     0          
C804     C      0.780700000000     0.500000000000     0.219300000000     0          
C805     C      0.904270000000     0.000000000000     0.595730000000     0          
C806     C      0.872210000000     0.000000000000     0.627790000000     0          
C807     C      0.812090000000     0.000000000000     0.687910000000     0          
C808     C      0.780700000000     0.000000000000     0.719300000000     0          
C809     C      0.404270000000     0.500000000000     0.595730000000     0          
C810     C      0.372210000000     0.500000000000     0.627790000000     0          
C811     C      0.312090000000     0.500000000000     0.687910000000     0          
C812     C      0.280700000000     0.500000000000     0.719300000000     0          
C813     C      0.404270000000     0.000000000000     0.095730000000     0          
C814     C      0.372210000000     0.000000000000     0.127790000000     0          
C815     C      0.312090000000     0.000000000000     0.187910000000     0          
C816     C      0.280700000000     0.000000000000     0.219300000000     0          
C817     C      0.904270000000     0.500000000000     0.904270000000     0          
C818     C      0.872210000000     0.500000000000     0.872210000000     0          
C819     C      0.812090000000     0.500000000000     0.812090000000     0          
C820     C      0.780700000000     0.500000000000     0.780700000000     0          
C821     C      0.904270000000     0.000000000000     0.404270000000     0          
C822     C      0.872210000000     0.000000000000     0.372210000000     0          
C823     C      0.812090000000     0.000000000000     0.312090000000     0          
C824     C      0.780700000000     0.000000000000     0.280700000000     0          
C825     C      0.404270000000     0.500000000000     0.404270000000     0          
C826     C      0.372210000000     0.500000000000     0.372210000000     0          
C827     C      0.312090000000     0.500000000000     0.312090000000     0          
C828     C      0.280700000000     0.500000000000     0.280700000000     0          
C829     C      0.404270000000     0.000000000000     0.904270000000     0          
C830     C      0.372210000000     0.000000000000     0.872210000000     0          
C831     C      0.312090000000     0.000000000000     0.812090000000     0          
C832     C      0.280700000000     0.000000000000     0.780700000000     0          
C833     C      0.095730000000     0.095730000000     0.500000000000     0          
C834     C      0.127790000000     0.127790000000     0.500000000000     0          
C835     C      0.187910000000     0.187910000000     0.500000000000     0          
C836     C      0.219300000000     0.219300000000     0.500000000000     0          
C837     C      0.095730000000     0.595730000000     0.000000000000     0          
C838     C      0.127790000000     0.627790000000     0.000000000000     0          
C839     C      0.187910000000     0.687910000000     0.000000000000     0          
C840     C      0.219300000000     0.719300000000     0.000000000000     0          
C841     C      0.595730000000     0.095730000000     0.000000000000     0          
C842     C      0.627790000000     0.127790000000     0.000000000000     0          
C843     C      0.687910000000     0.187910000000     0.000000000000     0          
C844     C      0.719300000000     0.219300000000     0.000000000000     0          
C845     C      0.595730000000     0.595730000000     0.500000000000     0          
C846     C      0.627790000000     0.627790000000     0.500000000000     0          
C847     C      0.687910000000     0.687910000000     0.500000000000     0          
C848     C      0.719300000000     0.719300000000     0.500000000000     0          
C849     C      0.904270000000     0.095730000000     0.500000000000     0          
C850     C      0.872210000000     0.127790000000     0.500000000000     0          
C851     C      0.812090000000     0.187910000000     0.500000000000     0          
C852     C      0.780700000000     0.219300000000     0.500000000000     0          
C853     C      0.904270000000     0.595730000000     0.000000000000     0          
C854     C      0.872210000000     0.627790000000     0.000000000000     0          
C855     C      0.812090000000     0.687910000000     0.000000000000     0          
C856     C      0.780700000000     0.719300000000     0.000000000000     0          
C857     C      0.404270000000     0.095730000000     0.000000000000     0          
C858     C      0.372210000000     0.127790000000     0.000000000000     0          
C859     C      0.312090000000     0.187910000000     0.000000000000     0          
C860     C      0.280700000000     0.219300000000     0.000000000000     0          
C861     C      0.404270000000     0.595730000000     0.500000000000     0          
C862     C      0.372210000000     0.627790000000     0.500000000000     0          
C863     C      0.312090000000     0.687910000000     0.500000000000     0          
C864     C      0.280700000000     0.719300000000     0.500000000000     0          
C865     C      0.095730000000     0.904270000000     0.500000000000     0          
C866     C      0.127790000000     0.872210000000     0.500000000000     0          
C867     C      0.187910000000     0.812090000000     0.500000000000     0          
C868     C      0.219300000000     0.780700000000     0.500000000000     0          
C869     C      0.095730000000     0.404270000000     0.000000000000     0          
C870     C      0.127790000000     0.372210000000     0.000000000000     0          
C871     C      0.187910000000     0.312090000000     0.000000000000     0          
C872     C      0.219300000000     0.280700000000     0.000000000000     0          
C873     C      0.595730000000     0.904270000000     0.000000000000     0          
C874     C      0.627790000000     0.872210000000     0.000000000000     0          
C875     C      0.687910000000     0.812090000000     0.000000000000     0          
C876     C      0.719300000000     0.780700000000     0.000000000000     0          
C877     C      0.595730000000     0.404270000000     0.500000000000     0          
C878     C      0.627790000000     0.372210000000     0.500000000000     0          
C879     C      0.687910000000     0.312090000000     0.500000000000     0          
C880     C      0.719300000000     0.280700000000     0.500000000000     0          
C881     C      0.904270000000     0.904270000000     0.500000000000     0          
C882     C      0.872210000000     0.872210000000     0.500000000000     0          
C883     C      0.812090000000     0.812090000000     0.500000000000     0          
C884     C      0.780700000000     0.780700000000     0.500000000000     0          
C885     C      0.904270000000     0.404270000000     0.000000000000     0          
C886     C      0.872210000000     0.372210000000     0.000000000000     0          
C887     C      0.812090000000     0.312090000000     0.000000000000     0          
C888     C      0.780700000000     0.280700000000     0.000000000000     0          
C889     C      0.404270000000     0.904270000000     0.000000000000     0          
C890     C      0.372210000000     0.872210000000     0.000000000000     0          
C891     C      0.312090000000     0.812090000000     0.000000000000     0          
C892     C      0.280700000000     0.780700000000     0.000000000000     0          
C893     C      0.404270000000     0.404270000000     0.500000000000     0          
C894     C      0.372210000000     0.372210000000     0.500000000000     0          
C895     C      0.312090000000     0.312090000000     0.500000000000     0          
C896     C      0.280700000000     0.280700000000     0.500000000000     0          
Zr897    Zr     0.500000000000     0.000000000000     0.075220000000     0          
Zr898    Zr     0.500000000000     0.500000000000     0.575220000000     0          
Zr899    Zr     0.000000000000     0.000000000000     0.575220000000     0          
Zr900    Zr     0.500000000000     0.000000000000     0.924780000000     0          
Zr901    Zr     0.500000000000     0.500000000000     0.424780000000     0          
Zr902    Zr     0.000000000000     0.500000000000     0.924780000000     0          
Zr903    Zr     0.075220000000     0.500000000000     0.000000000000     0          
Zr904    Zr     0.575220000000     0.500000000000     0.500000000000     0          
Zr905    Zr     0.575220000000     0.000000000000     0.000000000000     0          
Zr906    Zr     0.924780000000     0.500000000000     0.000000000000     0          
Zr907    Zr     0.924780000000     0.000000000000     0.500000000000     0          
Zr908    Zr     0.424780000000     0.500000000000     0.500000000000     0          
Zr909    Zr     0.000000000000     0.075220000000     0.500000000000     0          
Zr910    Zr     0.000000000000     0.575220000000     0.000000000000     0          
Zr911    Zr     0.500000000000     0.575220000000     0.500000000000     0          
Zr912    Zr     0.500000000000     0.075220000000     0.000000000000     0          
Zr913    Zr     0.000000000000     0.924780000000     0.500000000000     0          
Zr914    Zr     0.000000000000     0.424780000000     0.000000000000     0          
Zr915    Zr     0.000000000000     0.000000000000     0.424780000000     0          
Zr916    Zr     0.000000000000     0.500000000000     0.075220000000     0          
Zr917    Zr     0.500000000000     0.924780000000     0.000000000000     0          
Zr918    Zr     0.500000000000     0.424780000000     0.500000000000     0          
Zr919    Zr     0.075220000000     0.000000000000     0.500000000000     0          
Zr920    Zr     0.424780000000     0.000000000000     0.000000000000     0          
H921     H      0.701330000000     0.442230000000     0.748030000000     0          
H922     H      0.751970000000     0.442230000000     0.798670000000     0          
H923     H      0.798670000000     0.557770000000     0.751970000000     0          
H924     H      0.251970000000     0.557770000000     0.298670000000     0          
H925     H      0.298670000000     0.442230000000     0.251970000000     0          
H926     H      0.201330000000     0.557770000000     0.248030000000     0          
H927     H      0.557770000000     0.701330000000     0.748030000000     0          
H928     H      0.442230000000     0.798670000000     0.751970000000     0          
H929     H      0.557770000000     0.751970000000     0.798670000000     0          
H930     H      0.557770000000     0.201330000000     0.248030000000     0          
H931     H      0.442230000000     0.298670000000     0.251970000000     0          
H932     H      0.557770000000     0.251970000000     0.298670000000     0          
H933     H      0.751970000000     0.442230000000     0.201330000000     0          
H934     H      0.798670000000     0.557770000000     0.248030000000     0          
H935     H      0.748030000000     0.557770000000     0.298670000000     0          
H936     H      0.251970000000     0.442230000000     0.701330000000     0          
H937     H      0.298670000000     0.557770000000     0.748030000000     0          
H938     H      0.248030000000     0.557770000000     0.798670000000     0          
H939     H      0.557770000000     0.748030000000     0.298670000000     0          
H940     H      0.557770000000     0.798670000000     0.248030000000     0          
H941     H      0.442230000000     0.751970000000     0.201330000000     0          
H942     H      0.442230000000     0.251970000000     0.701330000000     0          
H943     H      0.557770000000     0.248030000000     0.798670000000     0          
H944     H      0.557770000000     0.298670000000     0.748030000000     0          
H945     H      0.748030000000     0.298670000000     0.557770000000     0          
H946     H      0.798670000000     0.248030000000     0.557770000000     0          
H947     H      0.751970000000     0.201330000000     0.442230000000     0          
H948     H      0.751970000000     0.798670000000     0.557770000000     0          
H949     H      0.748030000000     0.701330000000     0.442230000000     0          
H950     H      0.798670000000     0.751970000000     0.442230000000     0          
H951     H      0.248030000000     0.201330000000     0.442230000000     0          
H952     H      0.298670000000     0.251970000000     0.442230000000     0          
H953     H      0.251970000000     0.298670000000     0.557770000000     0          
H954     H      0.248030000000     0.798670000000     0.557770000000     0          
H955     H      0.298670000000     0.748030000000     0.557770000000     0          
H956     H      0.251970000000     0.701330000000     0.442230000000     0          
H957     H      0.942230000000     0.248030000000     0.701330000000     0          
H958     H      0.942230000000     0.748030000000     0.201330000000     0          
H959     H      0.057770000000     0.201330000000     0.748030000000     0          
H960     H      0.057770000000     0.701330000000     0.248030000000     0          
H961     H      0.057770000000     0.751970000000     0.298670000000     0          
H962     H      0.057770000000     0.251970000000     0.798670000000     0          
H963     H      0.942230000000     0.248030000000     0.298670000000     0          
H964     H      0.942230000000     0.748030000000     0.798670000000     0          
H965     H      0.057770000000     0.751970000000     0.701330000000     0          
H966     H      0.057770000000     0.251970000000     0.201330000000     0          
H967     H      0.057770000000     0.201330000000     0.251970000000     0          
H968     H      0.057770000000     0.701330000000     0.751970000000     0          
H969     H      0.798670000000     0.942230000000     0.251970000000     0          
H970     H      0.298670000000     0.942230000000     0.751970000000     0          
H971     H      0.751970000000     0.057770000000     0.298670000000     0          
H972     H      0.251970000000     0.057770000000     0.798670000000     0          
H973     H      0.201330000000     0.057770000000     0.748030000000     0          
H974     H      0.701330000000     0.057770000000     0.248030000000     0          
H975     H      0.751970000000     0.942230000000     0.701330000000     0          
H976     H      0.251970000000     0.942230000000     0.201330000000     0          
H977     H      0.798670000000     0.057770000000     0.748030000000     0          
H978     H      0.298670000000     0.057770000000     0.248030000000     0          
H979     H      0.248030000000     0.057770000000     0.298670000000     0          
H980     H      0.748030000000     0.057770000000     0.798670000000     0          
H981     H      0.798670000000     0.748030000000     0.942230000000     0          
H982     H      0.298670000000     0.248030000000     0.942230000000     0          
H983     H      0.751970000000     0.701330000000     0.057770000000     0          
H984     H      0.251970000000     0.201330000000     0.057770000000     0          
H985     H      0.201330000000     0.251970000000     0.057770000000     0          
H986     H      0.701330000000     0.751970000000     0.057770000000     0          
H987     H      0.248030000000     0.701330000000     0.942230000000     0          
H988     H      0.748030000000     0.201330000000     0.942230000000     0          
H989     H      0.201330000000     0.748030000000     0.057770000000     0          
H990     H      0.701330000000     0.248030000000     0.057770000000     0          
H991     H      0.751970000000     0.298670000000     0.057770000000     0          
H992     H      0.251970000000     0.798670000000     0.057770000000     0          


